
---------- Begin Simulation Statistics ----------
simSeconds                                   0.065720                       # Number of seconds simulated (Second)
simTicks                                  65720487304                       # Number of ticks simulated (Tick)
finalTick                                1702891886208664                       # Number of ticks from beginning of simulation (restored from checkpoints and never reset) (Tick)
simFreq                                  1000000000000                       # The number of ticks per simulated second ((Tick/Second))
hostSeconds                                   1647.57                       # Real time elapsed on the host (Second)
hostTickRate                                 39889272                       # The number of ticks simulated per host second (ticks/s) ((Tick/Second))
hostMemory                                    3567468                       # Number of bytes of host memory used (Byte)
simInsts                                   8459746266                       # Number of instructions simulated (Count)
simOps                                     8925186451                       # Number of ops (including micro ops) simulated (Count)
hostInstRate                                  5134671                       # Simulator instruction rate (inst/s) ((Count/Second))
hostOpRate                                    5417171                       # Simulator op (including micro ops) rate (op/s) ((Count/Second))
board.apicbridge.power_state.pwrStateResidencyTicks::UNDEFINED 1702891886208664                       # Cumulative time (in ticks) in various power states (Tick)
board.bridge.power_state.pwrStateResidencyTicks::UNDEFINED 1702891886208664                       # Cumulative time (in ticks) in various power states (Tick)
board.cache_hierarchy.dptw_caches.demandHits::processor.switch.core.mmu.dtb.walker        63382                       # number of demand (read+write) hits (Count)
board.cache_hierarchy.dptw_caches.demandHits::total        63382                       # number of demand (read+write) hits (Count)
board.cache_hierarchy.dptw_caches.overallHits::processor.switch.core.mmu.dtb.walker        63382                       # number of overall hits (Count)
board.cache_hierarchy.dptw_caches.overallHits::total        63382                       # number of overall hits (Count)
board.cache_hierarchy.dptw_caches.demandMisses::processor.switch.core.mmu.dtb.walker         1583                       # number of demand (read+write) misses (Count)
board.cache_hierarchy.dptw_caches.demandMisses::total         1583                       # number of demand (read+write) misses (Count)
board.cache_hierarchy.dptw_caches.overallMisses::processor.switch.core.mmu.dtb.walker         1583                       # number of overall misses (Count)
board.cache_hierarchy.dptw_caches.overallMisses::total         1583                       # number of overall misses (Count)
board.cache_hierarchy.dptw_caches.demandMissLatency::processor.switch.core.mmu.dtb.walker     56296493                       # number of demand (read+write) miss ticks (Tick)
board.cache_hierarchy.dptw_caches.demandMissLatency::total     56296493                       # number of demand (read+write) miss ticks (Tick)
board.cache_hierarchy.dptw_caches.overallMissLatency::processor.switch.core.mmu.dtb.walker     56296493                       # number of overall miss ticks (Tick)
board.cache_hierarchy.dptw_caches.overallMissLatency::total     56296493                       # number of overall miss ticks (Tick)
board.cache_hierarchy.dptw_caches.demandAccesses::processor.switch.core.mmu.dtb.walker        64965                       # number of demand (read+write) accesses (Count)
board.cache_hierarchy.dptw_caches.demandAccesses::total        64965                       # number of demand (read+write) accesses (Count)
board.cache_hierarchy.dptw_caches.overallAccesses::processor.switch.core.mmu.dtb.walker        64965                       # number of overall (read+write) accesses (Count)
board.cache_hierarchy.dptw_caches.overallAccesses::total        64965                       # number of overall (read+write) accesses (Count)
board.cache_hierarchy.dptw_caches.demandMissRate::processor.switch.core.mmu.dtb.walker     0.024367                       # miss rate for demand accesses (Ratio)
board.cache_hierarchy.dptw_caches.demandMissRate::total     0.024367                       # miss rate for demand accesses (Ratio)
board.cache_hierarchy.dptw_caches.overallMissRate::processor.switch.core.mmu.dtb.walker     0.024367                       # miss rate for overall accesses (Ratio)
board.cache_hierarchy.dptw_caches.overallMissRate::total     0.024367                       # miss rate for overall accesses (Ratio)
board.cache_hierarchy.dptw_caches.demandAvgMissLatency::processor.switch.core.mmu.dtb.walker 35563.166772                       # average overall miss latency in ticks ((Tick/Count))
board.cache_hierarchy.dptw_caches.demandAvgMissLatency::total 35563.166772                       # average overall miss latency in ticks ((Tick/Count))
board.cache_hierarchy.dptw_caches.overallAvgMissLatency::processor.switch.core.mmu.dtb.walker 35563.166772                       # average overall miss latency ((Tick/Count))
board.cache_hierarchy.dptw_caches.overallAvgMissLatency::total 35563.166772                       # average overall miss latency ((Tick/Count))
board.cache_hierarchy.dptw_caches.blockedCycles::no_mshrs            0                       # number of cycles access was blocked (Cycle)
board.cache_hierarchy.dptw_caches.blockedCycles::no_targets            0                       # number of cycles access was blocked (Cycle)
board.cache_hierarchy.dptw_caches.blockedCauses::no_mshrs            0                       # number of times access was blocked (Count)
board.cache_hierarchy.dptw_caches.blockedCauses::no_targets            0                       # number of times access was blocked (Count)
board.cache_hierarchy.dptw_caches.avgBlocked::no_mshrs          nan                       # average number of cycles each access was blocked ((Cycle/Count))
board.cache_hierarchy.dptw_caches.avgBlocked::no_targets          nan                       # average number of cycles each access was blocked ((Cycle/Count))
board.cache_hierarchy.dptw_caches.demandMshrMisses::processor.switch.core.mmu.dtb.walker         1583                       # number of demand (read+write) MSHR misses (Count)
board.cache_hierarchy.dptw_caches.demandMshrMisses::total         1583                       # number of demand (read+write) MSHR misses (Count)
board.cache_hierarchy.dptw_caches.overallMshrMisses::processor.switch.core.mmu.dtb.walker         1583                       # number of overall MSHR misses (Count)
board.cache_hierarchy.dptw_caches.overallMshrMisses::total         1583                       # number of overall MSHR misses (Count)
board.cache_hierarchy.dptw_caches.demandMshrMissLatency::processor.switch.core.mmu.dtb.walker     55801014                       # number of demand (read+write) MSHR miss ticks (Tick)
board.cache_hierarchy.dptw_caches.demandMshrMissLatency::total     55801014                       # number of demand (read+write) MSHR miss ticks (Tick)
board.cache_hierarchy.dptw_caches.overallMshrMissLatency::processor.switch.core.mmu.dtb.walker     55801014                       # number of overall MSHR miss ticks (Tick)
board.cache_hierarchy.dptw_caches.overallMshrMissLatency::total     55801014                       # number of overall MSHR miss ticks (Tick)
board.cache_hierarchy.dptw_caches.demandMshrMissRate::processor.switch.core.mmu.dtb.walker     0.024367                       # mshr miss ratio for demand accesses (Ratio)
board.cache_hierarchy.dptw_caches.demandMshrMissRate::total     0.024367                       # mshr miss ratio for demand accesses (Ratio)
board.cache_hierarchy.dptw_caches.overallMshrMissRate::processor.switch.core.mmu.dtb.walker     0.024367                       # mshr miss ratio for overall accesses (Ratio)
board.cache_hierarchy.dptw_caches.overallMshrMissRate::total     0.024367                       # mshr miss ratio for overall accesses (Ratio)
board.cache_hierarchy.dptw_caches.demandAvgMshrMissLatency::processor.switch.core.mmu.dtb.walker 35250.166772                       # average overall mshr miss latency ((Tick/Count))
board.cache_hierarchy.dptw_caches.demandAvgMshrMissLatency::total 35250.166772                       # average overall mshr miss latency ((Tick/Count))
board.cache_hierarchy.dptw_caches.overallAvgMshrMissLatency::processor.switch.core.mmu.dtb.walker 35250.166772                       # average overall mshr miss latency ((Tick/Count))
board.cache_hierarchy.dptw_caches.overallAvgMshrMissLatency::total 35250.166772                       # average overall mshr miss latency ((Tick/Count))
board.cache_hierarchy.dptw_caches.replacements         1442                       # number of replacements (Count)
board.cache_hierarchy.dptw_caches.ReadReq.hits::processor.switch.core.mmu.dtb.walker        63382                       # number of ReadReq hits (Count)
board.cache_hierarchy.dptw_caches.ReadReq.hits::total        63382                       # number of ReadReq hits (Count)
board.cache_hierarchy.dptw_caches.ReadReq.misses::processor.switch.core.mmu.dtb.walker         1583                       # number of ReadReq misses (Count)
board.cache_hierarchy.dptw_caches.ReadReq.misses::total         1583                       # number of ReadReq misses (Count)
board.cache_hierarchy.dptw_caches.ReadReq.missLatency::processor.switch.core.mmu.dtb.walker     56296493                       # number of ReadReq miss ticks (Tick)
board.cache_hierarchy.dptw_caches.ReadReq.missLatency::total     56296493                       # number of ReadReq miss ticks (Tick)
board.cache_hierarchy.dptw_caches.ReadReq.accesses::processor.switch.core.mmu.dtb.walker        64965                       # number of ReadReq accesses(hits+misses) (Count)
board.cache_hierarchy.dptw_caches.ReadReq.accesses::total        64965                       # number of ReadReq accesses(hits+misses) (Count)
board.cache_hierarchy.dptw_caches.ReadReq.missRate::processor.switch.core.mmu.dtb.walker     0.024367                       # miss rate for ReadReq accesses (Ratio)
board.cache_hierarchy.dptw_caches.ReadReq.missRate::total     0.024367                       # miss rate for ReadReq accesses (Ratio)
board.cache_hierarchy.dptw_caches.ReadReq.avgMissLatency::processor.switch.core.mmu.dtb.walker 35563.166772                       # average ReadReq miss latency ((Tick/Count))
board.cache_hierarchy.dptw_caches.ReadReq.avgMissLatency::total 35563.166772                       # average ReadReq miss latency ((Tick/Count))
board.cache_hierarchy.dptw_caches.ReadReq.mshrMisses::processor.switch.core.mmu.dtb.walker         1583                       # number of ReadReq MSHR misses (Count)
board.cache_hierarchy.dptw_caches.ReadReq.mshrMisses::total         1583                       # number of ReadReq MSHR misses (Count)
board.cache_hierarchy.dptw_caches.ReadReq.mshrMissLatency::processor.switch.core.mmu.dtb.walker     55801014                       # number of ReadReq MSHR miss ticks (Tick)
board.cache_hierarchy.dptw_caches.ReadReq.mshrMissLatency::total     55801014                       # number of ReadReq MSHR miss ticks (Tick)
board.cache_hierarchy.dptw_caches.ReadReq.mshrMissRate::processor.switch.core.mmu.dtb.walker     0.024367                       # mshr miss rate for ReadReq accesses (Ratio)
board.cache_hierarchy.dptw_caches.ReadReq.mshrMissRate::total     0.024367                       # mshr miss rate for ReadReq accesses (Ratio)
board.cache_hierarchy.dptw_caches.ReadReq.avgMshrMissLatency::processor.switch.core.mmu.dtb.walker 35250.166772                       # average ReadReq mshr miss latency ((Tick/Count))
board.cache_hierarchy.dptw_caches.ReadReq.avgMshrMissLatency::total 35250.166772                       # average ReadReq mshr miss latency ((Tick/Count))
board.cache_hierarchy.dptw_caches.power_state.pwrStateResidencyTicks::UNDEFINED 1702891886208664                       # Cumulative time (in ticks) in various power states (Tick)
board.cache_hierarchy.dptw_caches.tags.tagsInUse    95.817580                       # Average ticks per tags in use ((Tick/Count))
board.cache_hierarchy.dptw_caches.tags.totalRefs        39362                       # Total number of references to valid blocks. (Count)
board.cache_hierarchy.dptw_caches.tags.sampledRefs         1460                       # Sample count of references to valid blocks. (Count)
board.cache_hierarchy.dptw_caches.tags.avgRefs    26.960274                       # Average number of references to valid blocks. ((Count/Count))
board.cache_hierarchy.dptw_caches.tags.warmupTick 1702827194426165                       # The tick when the warmup percentage was hit. (Tick)
board.cache_hierarchy.dptw_caches.tags.occupancies::processor.switch.core.mmu.dtb.walker    95.817580                       # Average occupied blocks per tick, per requestor ((Count/Tick))
board.cache_hierarchy.dptw_caches.tags.avgOccs::processor.switch.core.mmu.dtb.walker     0.748575                       # Average percentage of cache occupancy ((Ratio/Tick))
board.cache_hierarchy.dptw_caches.tags.avgOccs::total     0.748575                       # Average percentage of cache occupancy ((Ratio/Tick))
board.cache_hierarchy.dptw_caches.tags.occupanciesTaskId::1024          123                       # Occupied blocks per task id (Count)
board.cache_hierarchy.dptw_caches.tags.ageTaskId_1024::2           39                       # Occupied blocks per task id, per block age (Count)
board.cache_hierarchy.dptw_caches.tags.ageTaskId_1024::3           42                       # Occupied blocks per task id, per block age (Count)
board.cache_hierarchy.dptw_caches.tags.ageTaskId_1024::4           42                       # Occupied blocks per task id, per block age (Count)
board.cache_hierarchy.dptw_caches.tags.ratioOccsTaskId::1024     0.960938                       # Ratio of occupied blocks and all blocks, per task id (Ratio)
board.cache_hierarchy.dptw_caches.tags.tagAccesses       261443                       # Number of tag accesses (Count)
board.cache_hierarchy.dptw_caches.tags.dataAccesses       261443                       # Number of data accesses (Count)
board.cache_hierarchy.dptw_caches.tags.power_state.pwrStateResidencyTicks::UNDEFINED 1702891886208664                       # Cumulative time (in ticks) in various power states (Tick)
board.cache_hierarchy.iocache.demandMisses::pc.south_bridge.ide         2822                       # number of demand (read+write) misses (Count)
board.cache_hierarchy.iocache.demandMisses::total         2822                       # number of demand (read+write) misses (Count)
board.cache_hierarchy.iocache.overallMisses::pc.south_bridge.ide         2822                       # number of overall misses (Count)
board.cache_hierarchy.iocache.overallMisses::total         2822                       # number of overall misses (Count)
board.cache_hierarchy.iocache.demandMissLatency::pc.south_bridge.ide    122653051                       # number of demand (read+write) miss ticks (Tick)
board.cache_hierarchy.iocache.demandMissLatency::total    122653051                       # number of demand (read+write) miss ticks (Tick)
board.cache_hierarchy.iocache.overallMissLatency::pc.south_bridge.ide    122653051                       # number of overall miss ticks (Tick)
board.cache_hierarchy.iocache.overallMissLatency::total    122653051                       # number of overall miss ticks (Tick)
board.cache_hierarchy.iocache.demandAccesses::pc.south_bridge.ide         2822                       # number of demand (read+write) accesses (Count)
board.cache_hierarchy.iocache.demandAccesses::total         2822                       # number of demand (read+write) accesses (Count)
board.cache_hierarchy.iocache.overallAccesses::pc.south_bridge.ide         2822                       # number of overall (read+write) accesses (Count)
board.cache_hierarchy.iocache.overallAccesses::total         2822                       # number of overall (read+write) accesses (Count)
board.cache_hierarchy.iocache.demandMissRate::pc.south_bridge.ide            1                       # miss rate for demand accesses (Ratio)
board.cache_hierarchy.iocache.demandMissRate::total            1                       # miss rate for demand accesses (Ratio)
board.cache_hierarchy.iocache.overallMissRate::pc.south_bridge.ide            1                       # miss rate for overall accesses (Ratio)
board.cache_hierarchy.iocache.overallMissRate::total            1                       # miss rate for overall accesses (Ratio)
board.cache_hierarchy.iocache.demandAvgMissLatency::pc.south_bridge.ide 43463.164777                       # average overall miss latency in ticks ((Tick/Count))
board.cache_hierarchy.iocache.demandAvgMissLatency::total 43463.164777                       # average overall miss latency in ticks ((Tick/Count))
board.cache_hierarchy.iocache.overallAvgMissLatency::pc.south_bridge.ide 43463.164777                       # average overall miss latency ((Tick/Count))
board.cache_hierarchy.iocache.overallAvgMissLatency::total 43463.164777                       # average overall miss latency ((Tick/Count))
board.cache_hierarchy.iocache.blockedCycles::no_mshrs           54                       # number of cycles access was blocked (Cycle)
board.cache_hierarchy.iocache.blockedCycles::no_targets            0                       # number of cycles access was blocked (Cycle)
board.cache_hierarchy.iocache.blockedCauses::no_mshrs            5                       # number of times access was blocked (Count)
board.cache_hierarchy.iocache.blockedCauses::no_targets            0                       # number of times access was blocked (Count)
board.cache_hierarchy.iocache.avgBlocked::no_mshrs    10.800000                       # average number of cycles each access was blocked ((Cycle/Count))
board.cache_hierarchy.iocache.avgBlocked::no_targets          nan                       # average number of cycles each access was blocked ((Cycle/Count))
board.cache_hierarchy.iocache.writebacks::writebacks         2800                       # number of writebacks (Count)
board.cache_hierarchy.iocache.writebacks::total         2800                       # number of writebacks (Count)
board.cache_hierarchy.iocache.demandMshrMisses::pc.south_bridge.ide         2822                       # number of demand (read+write) MSHR misses (Count)
board.cache_hierarchy.iocache.demandMshrMisses::total         2822                       # number of demand (read+write) MSHR misses (Count)
board.cache_hierarchy.iocache.overallMshrMisses::pc.south_bridge.ide         2822                       # number of overall MSHR misses (Count)
board.cache_hierarchy.iocache.overallMshrMisses::total         2822                       # number of overall MSHR misses (Count)
board.cache_hierarchy.iocache.demandMshrMissLatency::pc.south_bridge.ide     78450142                       # number of demand (read+write) MSHR miss ticks (Tick)
board.cache_hierarchy.iocache.demandMshrMissLatency::total     78450142                       # number of demand (read+write) MSHR miss ticks (Tick)
board.cache_hierarchy.iocache.overallMshrMissLatency::pc.south_bridge.ide     78450142                       # number of overall MSHR miss ticks (Tick)
board.cache_hierarchy.iocache.overallMshrMissLatency::total     78450142                       # number of overall MSHR miss ticks (Tick)
board.cache_hierarchy.iocache.demandMshrMissRate::pc.south_bridge.ide            1                       # mshr miss ratio for demand accesses (Ratio)
board.cache_hierarchy.iocache.demandMshrMissRate::total            1                       # mshr miss ratio for demand accesses (Ratio)
board.cache_hierarchy.iocache.overallMshrMissRate::pc.south_bridge.ide            1                       # mshr miss ratio for overall accesses (Ratio)
board.cache_hierarchy.iocache.overallMshrMissRate::total            1                       # mshr miss ratio for overall accesses (Ratio)
board.cache_hierarchy.iocache.demandAvgMshrMissLatency::pc.south_bridge.ide 27799.483345                       # average overall mshr miss latency ((Tick/Count))
board.cache_hierarchy.iocache.demandAvgMshrMissLatency::total 27799.483345                       # average overall mshr miss latency ((Tick/Count))
board.cache_hierarchy.iocache.overallAvgMshrMissLatency::pc.south_bridge.ide 27799.483345                       # average overall mshr miss latency ((Tick/Count))
board.cache_hierarchy.iocache.overallAvgMshrMissLatency::total 27799.483345                       # average overall mshr miss latency ((Tick/Count))
board.cache_hierarchy.iocache.replacements         2806                       # number of replacements (Count)
board.cache_hierarchy.iocache.ReadReq.misses::pc.south_bridge.ide            6                       # number of ReadReq misses (Count)
board.cache_hierarchy.iocache.ReadReq.misses::total            6                       # number of ReadReq misses (Count)
board.cache_hierarchy.iocache.ReadReq.missLatency::pc.south_bridge.ide       228488                       # number of ReadReq miss ticks (Tick)
board.cache_hierarchy.iocache.ReadReq.missLatency::total       228488                       # number of ReadReq miss ticks (Tick)
board.cache_hierarchy.iocache.ReadReq.accesses::pc.south_bridge.ide            6                       # number of ReadReq accesses(hits+misses) (Count)
board.cache_hierarchy.iocache.ReadReq.accesses::total            6                       # number of ReadReq accesses(hits+misses) (Count)
board.cache_hierarchy.iocache.ReadReq.missRate::pc.south_bridge.ide            1                       # miss rate for ReadReq accesses (Ratio)
board.cache_hierarchy.iocache.ReadReq.missRate::total            1                       # miss rate for ReadReq accesses (Ratio)
board.cache_hierarchy.iocache.ReadReq.avgMissLatency::pc.south_bridge.ide 38081.333333                       # average ReadReq miss latency ((Tick/Count))
board.cache_hierarchy.iocache.ReadReq.avgMissLatency::total 38081.333333                       # average ReadReq miss latency ((Tick/Count))
board.cache_hierarchy.iocache.ReadReq.mshrMisses::pc.south_bridge.ide            6                       # number of ReadReq MSHR misses (Count)
board.cache_hierarchy.iocache.ReadReq.mshrMisses::total            6                       # number of ReadReq MSHR misses (Count)
board.cache_hierarchy.iocache.ReadReq.mshrMissLatency::pc.south_bridge.ide       134588                       # number of ReadReq MSHR miss ticks (Tick)
board.cache_hierarchy.iocache.ReadReq.mshrMissLatency::total       134588                       # number of ReadReq MSHR miss ticks (Tick)
board.cache_hierarchy.iocache.ReadReq.mshrMissRate::pc.south_bridge.ide            1                       # mshr miss rate for ReadReq accesses (Ratio)
board.cache_hierarchy.iocache.ReadReq.mshrMissRate::total            1                       # mshr miss rate for ReadReq accesses (Ratio)
board.cache_hierarchy.iocache.ReadReq.avgMshrMissLatency::pc.south_bridge.ide 22431.333333                       # average ReadReq mshr miss latency ((Tick/Count))
board.cache_hierarchy.iocache.ReadReq.avgMshrMissLatency::total 22431.333333                       # average ReadReq mshr miss latency ((Tick/Count))
board.cache_hierarchy.iocache.WriteLineReq.misses::pc.south_bridge.ide         2816                       # number of WriteLineReq misses (Count)
board.cache_hierarchy.iocache.WriteLineReq.misses::total         2816                       # number of WriteLineReq misses (Count)
board.cache_hierarchy.iocache.WriteLineReq.missLatency::pc.south_bridge.ide    122424563                       # number of WriteLineReq miss ticks (Tick)
board.cache_hierarchy.iocache.WriteLineReq.missLatency::total    122424563                       # number of WriteLineReq miss ticks (Tick)
board.cache_hierarchy.iocache.WriteLineReq.accesses::pc.south_bridge.ide         2816                       # number of WriteLineReq accesses(hits+misses) (Count)
board.cache_hierarchy.iocache.WriteLineReq.accesses::total         2816                       # number of WriteLineReq accesses(hits+misses) (Count)
board.cache_hierarchy.iocache.WriteLineReq.missRate::pc.south_bridge.ide            1                       # miss rate for WriteLineReq accesses (Ratio)
board.cache_hierarchy.iocache.WriteLineReq.missRate::total            1                       # miss rate for WriteLineReq accesses (Ratio)
board.cache_hierarchy.iocache.WriteLineReq.avgMissLatency::pc.south_bridge.ide 43474.631747                       # average WriteLineReq miss latency ((Tick/Count))
board.cache_hierarchy.iocache.WriteLineReq.avgMissLatency::total 43474.631747                       # average WriteLineReq miss latency ((Tick/Count))
board.cache_hierarchy.iocache.WriteLineReq.mshrMisses::pc.south_bridge.ide         2816                       # number of WriteLineReq MSHR misses (Count)
board.cache_hierarchy.iocache.WriteLineReq.mshrMisses::total         2816                       # number of WriteLineReq MSHR misses (Count)
board.cache_hierarchy.iocache.WriteLineReq.mshrMissLatency::pc.south_bridge.ide     78315554                       # number of WriteLineReq MSHR miss ticks (Tick)
board.cache_hierarchy.iocache.WriteLineReq.mshrMissLatency::total     78315554                       # number of WriteLineReq MSHR miss ticks (Tick)
board.cache_hierarchy.iocache.WriteLineReq.mshrMissRate::pc.south_bridge.ide            1                       # mshr miss rate for WriteLineReq accesses (Ratio)
board.cache_hierarchy.iocache.WriteLineReq.mshrMissRate::total            1                       # mshr miss rate for WriteLineReq accesses (Ratio)
board.cache_hierarchy.iocache.WriteLineReq.avgMshrMissLatency::pc.south_bridge.ide 27810.921165                       # average WriteLineReq mshr miss latency ((Tick/Count))
board.cache_hierarchy.iocache.WriteLineReq.avgMshrMissLatency::total 27810.921165                       # average WriteLineReq mshr miss latency ((Tick/Count))
board.cache_hierarchy.iocache.power_state.pwrStateResidencyTicks::UNDEFINED 1702891886208664                       # Cumulative time (in ticks) in various power states (Tick)
board.cache_hierarchy.iocache.tags.tagsInUse    15.660729                       # Average ticks per tags in use ((Tick/Count))
board.cache_hierarchy.iocache.tags.totalRefs         2806                       # Total number of references to valid blocks. (Count)
board.cache_hierarchy.iocache.tags.sampledRefs         2806                       # Sample count of references to valid blocks. (Count)
board.cache_hierarchy.iocache.tags.avgRefs            1                       # Average number of references to valid blocks. ((Count/Count))
board.cache_hierarchy.iocache.tags.warmupTick 1702827558304628                       # The tick when the warmup percentage was hit. (Tick)
board.cache_hierarchy.iocache.tags.occupancies::pc.south_bridge.ide    15.660729                       # Average occupied blocks per tick, per requestor ((Count/Tick))
board.cache_hierarchy.iocache.tags.avgOccs::pc.south_bridge.ide     0.978796                       # Average percentage of cache occupancy ((Ratio/Tick))
board.cache_hierarchy.iocache.tags.avgOccs::total     0.978796                       # Average percentage of cache occupancy ((Ratio/Tick))
board.cache_hierarchy.iocache.tags.occupanciesTaskId::1023           16                       # Occupied blocks per task id (Count)
board.cache_hierarchy.iocache.tags.ageTaskId_1023::4           16                       # Occupied blocks per task id, per block age (Count)
board.cache_hierarchy.iocache.tags.ratioOccsTaskId::1023            1                       # Ratio of occupied blocks and all blocks, per task id (Ratio)
board.cache_hierarchy.iocache.tags.tagAccesses        25398                       # Number of tag accesses (Count)
board.cache_hierarchy.iocache.tags.dataAccesses        25398                       # Number of data accesses (Count)
board.cache_hierarchy.iocache.tags.power_state.pwrStateResidencyTicks::UNDEFINED 1702891886208664                       # Cumulative time (in ticks) in various power states (Tick)
board.cache_hierarchy.iptw_caches.demandHits::processor.switch.core.mmu.itb.walker          891                       # number of demand (read+write) hits (Count)
board.cache_hierarchy.iptw_caches.demandHits::total          891                       # number of demand (read+write) hits (Count)
board.cache_hierarchy.iptw_caches.overallHits::processor.switch.core.mmu.itb.walker          891                       # number of overall hits (Count)
board.cache_hierarchy.iptw_caches.overallHits::total          891                       # number of overall hits (Count)
board.cache_hierarchy.iptw_caches.demandMisses::processor.switch.core.mmu.itb.walker           86                       # number of demand (read+write) misses (Count)
board.cache_hierarchy.iptw_caches.demandMisses::total           86                       # number of demand (read+write) misses (Count)
board.cache_hierarchy.iptw_caches.overallMisses::processor.switch.core.mmu.itb.walker           86                       # number of overall misses (Count)
board.cache_hierarchy.iptw_caches.overallMisses::total           86                       # number of overall misses (Count)
board.cache_hierarchy.iptw_caches.demandMissLatency::processor.switch.core.mmu.itb.walker      2911526                       # number of demand (read+write) miss ticks (Tick)
board.cache_hierarchy.iptw_caches.demandMissLatency::total      2911526                       # number of demand (read+write) miss ticks (Tick)
board.cache_hierarchy.iptw_caches.overallMissLatency::processor.switch.core.mmu.itb.walker      2911526                       # number of overall miss ticks (Tick)
board.cache_hierarchy.iptw_caches.overallMissLatency::total      2911526                       # number of overall miss ticks (Tick)
board.cache_hierarchy.iptw_caches.demandAccesses::processor.switch.core.mmu.itb.walker          977                       # number of demand (read+write) accesses (Count)
board.cache_hierarchy.iptw_caches.demandAccesses::total          977                       # number of demand (read+write) accesses (Count)
board.cache_hierarchy.iptw_caches.overallAccesses::processor.switch.core.mmu.itb.walker          977                       # number of overall (read+write) accesses (Count)
board.cache_hierarchy.iptw_caches.overallAccesses::total          977                       # number of overall (read+write) accesses (Count)
board.cache_hierarchy.iptw_caches.demandMissRate::processor.switch.core.mmu.itb.walker     0.088025                       # miss rate for demand accesses (Ratio)
board.cache_hierarchy.iptw_caches.demandMissRate::total     0.088025                       # miss rate for demand accesses (Ratio)
board.cache_hierarchy.iptw_caches.overallMissRate::processor.switch.core.mmu.itb.walker     0.088025                       # miss rate for overall accesses (Ratio)
board.cache_hierarchy.iptw_caches.overallMissRate::total     0.088025                       # miss rate for overall accesses (Ratio)
board.cache_hierarchy.iptw_caches.demandAvgMissLatency::processor.switch.core.mmu.itb.walker 33854.953488                       # average overall miss latency in ticks ((Tick/Count))
board.cache_hierarchy.iptw_caches.demandAvgMissLatency::total 33854.953488                       # average overall miss latency in ticks ((Tick/Count))
board.cache_hierarchy.iptw_caches.overallAvgMissLatency::processor.switch.core.mmu.itb.walker 33854.953488                       # average overall miss latency ((Tick/Count))
board.cache_hierarchy.iptw_caches.overallAvgMissLatency::total 33854.953488                       # average overall miss latency ((Tick/Count))
board.cache_hierarchy.iptw_caches.blockedCycles::no_mshrs            0                       # number of cycles access was blocked (Cycle)
board.cache_hierarchy.iptw_caches.blockedCycles::no_targets            0                       # number of cycles access was blocked (Cycle)
board.cache_hierarchy.iptw_caches.blockedCauses::no_mshrs            0                       # number of times access was blocked (Count)
board.cache_hierarchy.iptw_caches.blockedCauses::no_targets            0                       # number of times access was blocked (Count)
board.cache_hierarchy.iptw_caches.avgBlocked::no_mshrs          nan                       # average number of cycles each access was blocked ((Cycle/Count))
board.cache_hierarchy.iptw_caches.avgBlocked::no_targets          nan                       # average number of cycles each access was blocked ((Cycle/Count))
board.cache_hierarchy.iptw_caches.demandMshrMisses::processor.switch.core.mmu.itb.walker           86                       # number of demand (read+write) MSHR misses (Count)
board.cache_hierarchy.iptw_caches.demandMshrMisses::total           86                       # number of demand (read+write) MSHR misses (Count)
board.cache_hierarchy.iptw_caches.overallMshrMisses::processor.switch.core.mmu.itb.walker           86                       # number of overall MSHR misses (Count)
board.cache_hierarchy.iptw_caches.overallMshrMisses::total           86                       # number of overall MSHR misses (Count)
board.cache_hierarchy.iptw_caches.demandMshrMissLatency::processor.switch.core.mmu.itb.walker      2884608                       # number of demand (read+write) MSHR miss ticks (Tick)
board.cache_hierarchy.iptw_caches.demandMshrMissLatency::total      2884608                       # number of demand (read+write) MSHR miss ticks (Tick)
board.cache_hierarchy.iptw_caches.overallMshrMissLatency::processor.switch.core.mmu.itb.walker      2884608                       # number of overall MSHR miss ticks (Tick)
board.cache_hierarchy.iptw_caches.overallMshrMissLatency::total      2884608                       # number of overall MSHR miss ticks (Tick)
board.cache_hierarchy.iptw_caches.demandMshrMissRate::processor.switch.core.mmu.itb.walker     0.088025                       # mshr miss ratio for demand accesses (Ratio)
board.cache_hierarchy.iptw_caches.demandMshrMissRate::total     0.088025                       # mshr miss ratio for demand accesses (Ratio)
board.cache_hierarchy.iptw_caches.overallMshrMissRate::processor.switch.core.mmu.itb.walker     0.088025                       # mshr miss ratio for overall accesses (Ratio)
board.cache_hierarchy.iptw_caches.overallMshrMissRate::total     0.088025                       # mshr miss ratio for overall accesses (Ratio)
board.cache_hierarchy.iptw_caches.demandAvgMshrMissLatency::processor.switch.core.mmu.itb.walker 33541.953488                       # average overall mshr miss latency ((Tick/Count))
board.cache_hierarchy.iptw_caches.demandAvgMshrMissLatency::total 33541.953488                       # average overall mshr miss latency ((Tick/Count))
board.cache_hierarchy.iptw_caches.overallAvgMshrMissLatency::processor.switch.core.mmu.itb.walker 33541.953488                       # average overall mshr miss latency ((Tick/Count))
board.cache_hierarchy.iptw_caches.overallAvgMshrMissLatency::total 33541.953488                       # average overall mshr miss latency ((Tick/Count))
board.cache_hierarchy.iptw_caches.replacements            4                       # number of replacements (Count)
board.cache_hierarchy.iptw_caches.ReadReq.hits::processor.switch.core.mmu.itb.walker          891                       # number of ReadReq hits (Count)
board.cache_hierarchy.iptw_caches.ReadReq.hits::total          891                       # number of ReadReq hits (Count)
board.cache_hierarchy.iptw_caches.ReadReq.misses::processor.switch.core.mmu.itb.walker           86                       # number of ReadReq misses (Count)
board.cache_hierarchy.iptw_caches.ReadReq.misses::total           86                       # number of ReadReq misses (Count)
board.cache_hierarchy.iptw_caches.ReadReq.missLatency::processor.switch.core.mmu.itb.walker      2911526                       # number of ReadReq miss ticks (Tick)
board.cache_hierarchy.iptw_caches.ReadReq.missLatency::total      2911526                       # number of ReadReq miss ticks (Tick)
board.cache_hierarchy.iptw_caches.ReadReq.accesses::processor.switch.core.mmu.itb.walker          977                       # number of ReadReq accesses(hits+misses) (Count)
board.cache_hierarchy.iptw_caches.ReadReq.accesses::total          977                       # number of ReadReq accesses(hits+misses) (Count)
board.cache_hierarchy.iptw_caches.ReadReq.missRate::processor.switch.core.mmu.itb.walker     0.088025                       # miss rate for ReadReq accesses (Ratio)
board.cache_hierarchy.iptw_caches.ReadReq.missRate::total     0.088025                       # miss rate for ReadReq accesses (Ratio)
board.cache_hierarchy.iptw_caches.ReadReq.avgMissLatency::processor.switch.core.mmu.itb.walker 33854.953488                       # average ReadReq miss latency ((Tick/Count))
board.cache_hierarchy.iptw_caches.ReadReq.avgMissLatency::total 33854.953488                       # average ReadReq miss latency ((Tick/Count))
board.cache_hierarchy.iptw_caches.ReadReq.mshrMisses::processor.switch.core.mmu.itb.walker           86                       # number of ReadReq MSHR misses (Count)
board.cache_hierarchy.iptw_caches.ReadReq.mshrMisses::total           86                       # number of ReadReq MSHR misses (Count)
board.cache_hierarchy.iptw_caches.ReadReq.mshrMissLatency::processor.switch.core.mmu.itb.walker      2884608                       # number of ReadReq MSHR miss ticks (Tick)
board.cache_hierarchy.iptw_caches.ReadReq.mshrMissLatency::total      2884608                       # number of ReadReq MSHR miss ticks (Tick)
board.cache_hierarchy.iptw_caches.ReadReq.mshrMissRate::processor.switch.core.mmu.itb.walker     0.088025                       # mshr miss rate for ReadReq accesses (Ratio)
board.cache_hierarchy.iptw_caches.ReadReq.mshrMissRate::total     0.088025                       # mshr miss rate for ReadReq accesses (Ratio)
board.cache_hierarchy.iptw_caches.ReadReq.avgMshrMissLatency::processor.switch.core.mmu.itb.walker 33541.953488                       # average ReadReq mshr miss latency ((Tick/Count))
board.cache_hierarchy.iptw_caches.ReadReq.avgMshrMissLatency::total 33541.953488                       # average ReadReq mshr miss latency ((Tick/Count))
board.cache_hierarchy.iptw_caches.power_state.pwrStateResidencyTicks::UNDEFINED 1702891886208664                       # Cumulative time (in ticks) in various power states (Tick)
board.cache_hierarchy.iptw_caches.tags.tagsInUse    19.229157                       # Average ticks per tags in use ((Tick/Count))
board.cache_hierarchy.iptw_caches.tags.totalRefs           36                       # Total number of references to valid blocks. (Count)
board.cache_hierarchy.iptw_caches.tags.sampledRefs            6                       # Sample count of references to valid blocks. (Count)
board.cache_hierarchy.iptw_caches.tags.avgRefs            6                       # Average number of references to valid blocks. ((Count/Count))
board.cache_hierarchy.iptw_caches.tags.warmupTick 1702827194273108                       # The tick when the warmup percentage was hit. (Tick)
board.cache_hierarchy.iptw_caches.tags.occupancies::processor.switch.core.mmu.itb.walker    19.229157                       # Average occupied blocks per tick, per requestor ((Count/Tick))
board.cache_hierarchy.iptw_caches.tags.avgOccs::processor.switch.core.mmu.itb.walker     0.150228                       # Average percentage of cache occupancy ((Ratio/Tick))
board.cache_hierarchy.iptw_caches.tags.avgOccs::total     0.150228                       # Average percentage of cache occupancy ((Ratio/Tick))
board.cache_hierarchy.iptw_caches.tags.occupanciesTaskId::1024           80                       # Occupied blocks per task id (Count)
board.cache_hierarchy.iptw_caches.tags.ageTaskId_1024::2           12                       # Occupied blocks per task id, per block age (Count)
board.cache_hierarchy.iptw_caches.tags.ageTaskId_1024::3           58                       # Occupied blocks per task id, per block age (Count)
board.cache_hierarchy.iptw_caches.tags.ageTaskId_1024::4           10                       # Occupied blocks per task id, per block age (Count)
board.cache_hierarchy.iptw_caches.tags.ratioOccsTaskId::1024     0.625000                       # Ratio of occupied blocks and all blocks, per task id (Ratio)
board.cache_hierarchy.iptw_caches.tags.tagAccesses         3994                       # Number of tag accesses (Count)
board.cache_hierarchy.iptw_caches.tags.dataAccesses         3994                       # Number of data accesses (Count)
board.cache_hierarchy.iptw_caches.tags.power_state.pwrStateResidencyTicks::UNDEFINED 1702891886208664                       # Cumulative time (in ticks) in various power states (Tick)
board.cache_hierarchy.l1dcaches.demandHits::processor.switch.core.data    174151436                       # number of demand (read+write) hits (Count)
board.cache_hierarchy.l1dcaches.demandHits::total    174151436                       # number of demand (read+write) hits (Count)
board.cache_hierarchy.l1dcaches.overallHits::processor.switch.core.data    174151455                       # number of overall hits (Count)
board.cache_hierarchy.l1dcaches.overallHits::total    174151455                       # number of overall hits (Count)
board.cache_hierarchy.l1dcaches.demandMisses::processor.switch.core.data       397886                       # number of demand (read+write) misses (Count)
board.cache_hierarchy.l1dcaches.demandMisses::total       397886                       # number of demand (read+write) misses (Count)
board.cache_hierarchy.l1dcaches.overallMisses::processor.switch.core.data       397936                       # number of overall misses (Count)
board.cache_hierarchy.l1dcaches.overallMisses::total       397936                       # number of overall misses (Count)
board.cache_hierarchy.l1dcaches.demandMissLatency::processor.switch.core.data   6791623927                       # number of demand (read+write) miss ticks (Tick)
board.cache_hierarchy.l1dcaches.demandMissLatency::total   6791623927                       # number of demand (read+write) miss ticks (Tick)
board.cache_hierarchy.l1dcaches.overallMissLatency::processor.switch.core.data   6791623927                       # number of overall miss ticks (Tick)
board.cache_hierarchy.l1dcaches.overallMissLatency::total   6791623927                       # number of overall miss ticks (Tick)
board.cache_hierarchy.l1dcaches.demandAccesses::processor.switch.core.data    174549322                       # number of demand (read+write) accesses (Count)
board.cache_hierarchy.l1dcaches.demandAccesses::total    174549322                       # number of demand (read+write) accesses (Count)
board.cache_hierarchy.l1dcaches.overallAccesses::processor.switch.core.data    174549391                       # number of overall (read+write) accesses (Count)
board.cache_hierarchy.l1dcaches.overallAccesses::total    174549391                       # number of overall (read+write) accesses (Count)
board.cache_hierarchy.l1dcaches.demandMissRate::processor.switch.core.data     0.002280                       # miss rate for demand accesses (Ratio)
board.cache_hierarchy.l1dcaches.demandMissRate::total     0.002280                       # miss rate for demand accesses (Ratio)
board.cache_hierarchy.l1dcaches.overallMissRate::processor.switch.core.data     0.002280                       # miss rate for overall accesses (Ratio)
board.cache_hierarchy.l1dcaches.overallMissRate::total     0.002280                       # miss rate for overall accesses (Ratio)
board.cache_hierarchy.l1dcaches.demandAvgMissLatency::processor.switch.core.data 17069.270914                       # average overall miss latency in ticks ((Tick/Count))
board.cache_hierarchy.l1dcaches.demandAvgMissLatency::total 17069.270914                       # average overall miss latency in ticks ((Tick/Count))
board.cache_hierarchy.l1dcaches.overallAvgMissLatency::processor.switch.core.data 17067.126189                       # average overall miss latency ((Tick/Count))
board.cache_hierarchy.l1dcaches.overallAvgMissLatency::total 17067.126189                       # average overall miss latency ((Tick/Count))
board.cache_hierarchy.l1dcaches.blockedCycles::no_mshrs            0                       # number of cycles access was blocked (Cycle)
board.cache_hierarchy.l1dcaches.blockedCycles::no_targets          844                       # number of cycles access was blocked (Cycle)
board.cache_hierarchy.l1dcaches.blockedCauses::no_mshrs            0                       # number of times access was blocked (Count)
board.cache_hierarchy.l1dcaches.blockedCauses::no_targets            9                       # number of times access was blocked (Count)
board.cache_hierarchy.l1dcaches.avgBlocked::no_mshrs          nan                       # average number of cycles each access was blocked ((Cycle/Count))
board.cache_hierarchy.l1dcaches.avgBlocked::no_targets    93.777778                       # average number of cycles each access was blocked ((Cycle/Count))
board.cache_hierarchy.l1dcaches.writebacks::writebacks       114123                       # number of writebacks (Count)
board.cache_hierarchy.l1dcaches.writebacks::total       114123                       # number of writebacks (Count)
board.cache_hierarchy.l1dcaches.demandMshrHits::processor.switch.core.data        10594                       # number of demand (read+write) MSHR hits (Count)
board.cache_hierarchy.l1dcaches.demandMshrHits::total        10594                       # number of demand (read+write) MSHR hits (Count)
board.cache_hierarchy.l1dcaches.overallMshrHits::processor.switch.core.data        10594                       # number of overall MSHR hits (Count)
board.cache_hierarchy.l1dcaches.overallMshrHits::total        10594                       # number of overall MSHR hits (Count)
board.cache_hierarchy.l1dcaches.demandMshrMisses::processor.switch.core.data       387292                       # number of demand (read+write) MSHR misses (Count)
board.cache_hierarchy.l1dcaches.demandMshrMisses::total       387292                       # number of demand (read+write) MSHR misses (Count)
board.cache_hierarchy.l1dcaches.overallMshrMisses::cache_hierarchy.l1dcaches.prefetcher       357309                       # number of overall MSHR misses (Count)
board.cache_hierarchy.l1dcaches.overallMshrMisses::processor.switch.core.data       387342                       # number of overall MSHR misses (Count)
board.cache_hierarchy.l1dcaches.overallMshrMisses::total       744651                       # number of overall MSHR misses (Count)
board.cache_hierarchy.l1dcaches.overallMshrUncacheable::processor.switch.core.data         1482                       # number of overall MSHR uncacheable misses (Count)
board.cache_hierarchy.l1dcaches.overallMshrUncacheable::total         1482                       # number of overall MSHR uncacheable misses (Count)
board.cache_hierarchy.l1dcaches.demandMshrMissLatency::processor.switch.core.data   6471315690                       # number of demand (read+write) MSHR miss ticks (Tick)
board.cache_hierarchy.l1dcaches.demandMshrMissLatency::total   6471315690                       # number of demand (read+write) MSHR miss ticks (Tick)
board.cache_hierarchy.l1dcaches.overallMshrMissLatency::cache_hierarchy.l1dcaches.prefetcher  12992195162                       # number of overall MSHR miss ticks (Tick)
board.cache_hierarchy.l1dcaches.overallMshrMissLatency::processor.switch.core.data   6472193029                       # number of overall MSHR miss ticks (Tick)
board.cache_hierarchy.l1dcaches.overallMshrMissLatency::total  19464388191                       # number of overall MSHR miss ticks (Tick)
board.cache_hierarchy.l1dcaches.overallMshrUncacheableLatency::processor.switch.core.data    218282444                       # number of overall MSHR uncacheable ticks (Tick)
board.cache_hierarchy.l1dcaches.overallMshrUncacheableLatency::total    218282444                       # number of overall MSHR uncacheable ticks (Tick)
board.cache_hierarchy.l1dcaches.demandMshrMissRate::processor.switch.core.data     0.002219                       # mshr miss ratio for demand accesses (Ratio)
board.cache_hierarchy.l1dcaches.demandMshrMissRate::total     0.002219                       # mshr miss ratio for demand accesses (Ratio)
board.cache_hierarchy.l1dcaches.overallMshrMissRate::cache_hierarchy.l1dcaches.prefetcher          inf                       # mshr miss ratio for overall accesses (Ratio)
board.cache_hierarchy.l1dcaches.overallMshrMissRate::processor.switch.core.data     0.002219                       # mshr miss ratio for overall accesses (Ratio)
board.cache_hierarchy.l1dcaches.overallMshrMissRate::total     0.004266                       # mshr miss ratio for overall accesses (Ratio)
board.cache_hierarchy.l1dcaches.demandAvgMshrMissLatency::processor.switch.core.data 16709.138557                       # average overall mshr miss latency ((Tick/Count))
board.cache_hierarchy.l1dcaches.demandAvgMshrMissLatency::total 16709.138557                       # average overall mshr miss latency ((Tick/Count))
board.cache_hierarchy.l1dcaches.overallAvgMshrMissLatency::cache_hierarchy.l1dcaches.prefetcher 36361.231209                       # average overall mshr miss latency ((Tick/Count))
board.cache_hierarchy.l1dcaches.overallAvgMshrMissLatency::processor.switch.core.data 16709.246684                       # average overall mshr miss latency ((Tick/Count))
board.cache_hierarchy.l1dcaches.overallAvgMshrMissLatency::total 26138.940512                       # average overall mshr miss latency ((Tick/Count))
board.cache_hierarchy.l1dcaches.overallAvgMshrUncacheableLatency::processor.switch.core.data 147289.098516                       # average overall mshr uncacheable latency ((Tick/Count))
board.cache_hierarchy.l1dcaches.overallAvgMshrUncacheableLatency::total 147289.098516                       # average overall mshr uncacheable latency ((Tick/Count))
board.cache_hierarchy.l1dcaches.replacements       744386                       # number of replacements (Count)
board.cache_hierarchy.l1dcaches.HardPFReq.mshrMisses::cache_hierarchy.l1dcaches.prefetcher       357309                       # number of HardPFReq MSHR misses (Count)
board.cache_hierarchy.l1dcaches.HardPFReq.mshrMisses::total       357309                       # number of HardPFReq MSHR misses (Count)
board.cache_hierarchy.l1dcaches.HardPFReq.mshrMissLatency::cache_hierarchy.l1dcaches.prefetcher  12992195162                       # number of HardPFReq MSHR miss ticks (Tick)
board.cache_hierarchy.l1dcaches.HardPFReq.mshrMissLatency::total  12992195162                       # number of HardPFReq MSHR miss ticks (Tick)
board.cache_hierarchy.l1dcaches.HardPFReq.mshrMissRate::cache_hierarchy.l1dcaches.prefetcher          inf                       # mshr miss rate for HardPFReq accesses (Ratio)
board.cache_hierarchy.l1dcaches.HardPFReq.mshrMissRate::total          inf                       # mshr miss rate for HardPFReq accesses (Ratio)
board.cache_hierarchy.l1dcaches.HardPFReq.avgMshrMissLatency::cache_hierarchy.l1dcaches.prefetcher 36361.231209                       # average HardPFReq mshr miss latency ((Tick/Count))
board.cache_hierarchy.l1dcaches.HardPFReq.avgMshrMissLatency::total 36361.231209                       # average HardPFReq mshr miss latency ((Tick/Count))
board.cache_hierarchy.l1dcaches.LockedRMWReadReq.hits::processor.switch.core.data         4165                       # number of LockedRMWReadReq hits (Count)
board.cache_hierarchy.l1dcaches.LockedRMWReadReq.hits::total         4165                       # number of LockedRMWReadReq hits (Count)
board.cache_hierarchy.l1dcaches.LockedRMWReadReq.misses::processor.switch.core.data           11                       # number of LockedRMWReadReq misses (Count)
board.cache_hierarchy.l1dcaches.LockedRMWReadReq.misses::total           11                       # number of LockedRMWReadReq misses (Count)
board.cache_hierarchy.l1dcaches.LockedRMWReadReq.missLatency::processor.switch.core.data       349621                       # number of LockedRMWReadReq miss ticks (Tick)
board.cache_hierarchy.l1dcaches.LockedRMWReadReq.missLatency::total       349621                       # number of LockedRMWReadReq miss ticks (Tick)
board.cache_hierarchy.l1dcaches.LockedRMWReadReq.accesses::processor.switch.core.data         4176                       # number of LockedRMWReadReq accesses(hits+misses) (Count)
board.cache_hierarchy.l1dcaches.LockedRMWReadReq.accesses::total         4176                       # number of LockedRMWReadReq accesses(hits+misses) (Count)
board.cache_hierarchy.l1dcaches.LockedRMWReadReq.missRate::processor.switch.core.data     0.002634                       # miss rate for LockedRMWReadReq accesses (Ratio)
board.cache_hierarchy.l1dcaches.LockedRMWReadReq.missRate::total     0.002634                       # miss rate for LockedRMWReadReq accesses (Ratio)
board.cache_hierarchy.l1dcaches.LockedRMWReadReq.avgMissLatency::processor.switch.core.data 31783.727273                       # average LockedRMWReadReq miss latency ((Tick/Count))
board.cache_hierarchy.l1dcaches.LockedRMWReadReq.avgMissLatency::total 31783.727273                       # average LockedRMWReadReq miss latency ((Tick/Count))
board.cache_hierarchy.l1dcaches.LockedRMWReadReq.mshrMisses::processor.switch.core.data           11                       # number of LockedRMWReadReq MSHR misses (Count)
board.cache_hierarchy.l1dcaches.LockedRMWReadReq.mshrMisses::total           11                       # number of LockedRMWReadReq MSHR misses (Count)
board.cache_hierarchy.l1dcaches.LockedRMWReadReq.mshrMissLatency::processor.switch.core.data     10457330                       # number of LockedRMWReadReq MSHR miss ticks (Tick)
board.cache_hierarchy.l1dcaches.LockedRMWReadReq.mshrMissLatency::total     10457330                       # number of LockedRMWReadReq MSHR miss ticks (Tick)
board.cache_hierarchy.l1dcaches.LockedRMWReadReq.mshrMissRate::processor.switch.core.data     0.002634                       # mshr miss rate for LockedRMWReadReq accesses (Ratio)
board.cache_hierarchy.l1dcaches.LockedRMWReadReq.mshrMissRate::total     0.002634                       # mshr miss rate for LockedRMWReadReq accesses (Ratio)
board.cache_hierarchy.l1dcaches.LockedRMWReadReq.avgMshrMissLatency::processor.switch.core.data 950666.363636                       # average LockedRMWReadReq mshr miss latency ((Tick/Count))
board.cache_hierarchy.l1dcaches.LockedRMWReadReq.avgMshrMissLatency::total 950666.363636                       # average LockedRMWReadReq mshr miss latency ((Tick/Count))
board.cache_hierarchy.l1dcaches.LockedRMWWriteReq.hits::processor.switch.core.data         4176                       # number of LockedRMWWriteReq hits (Count)
board.cache_hierarchy.l1dcaches.LockedRMWWriteReq.hits::total         4176                       # number of LockedRMWWriteReq hits (Count)
board.cache_hierarchy.l1dcaches.LockedRMWWriteReq.accesses::processor.switch.core.data         4176                       # number of LockedRMWWriteReq accesses(hits+misses) (Count)
board.cache_hierarchy.l1dcaches.LockedRMWWriteReq.accesses::total         4176                       # number of LockedRMWWriteReq accesses(hits+misses) (Count)
board.cache_hierarchy.l1dcaches.ReadReq.hits::processor.switch.core.data    140506396                       # number of ReadReq hits (Count)
board.cache_hierarchy.l1dcaches.ReadReq.hits::total    140506396                       # number of ReadReq hits (Count)
board.cache_hierarchy.l1dcaches.ReadReq.misses::processor.switch.core.data       340459                       # number of ReadReq misses (Count)
board.cache_hierarchy.l1dcaches.ReadReq.misses::total       340459                       # number of ReadReq misses (Count)
board.cache_hierarchy.l1dcaches.ReadReq.missLatency::processor.switch.core.data   5920403138                       # number of ReadReq miss ticks (Tick)
board.cache_hierarchy.l1dcaches.ReadReq.missLatency::total   5920403138                       # number of ReadReq miss ticks (Tick)
board.cache_hierarchy.l1dcaches.ReadReq.accesses::processor.switch.core.data    140846855                       # number of ReadReq accesses(hits+misses) (Count)
board.cache_hierarchy.l1dcaches.ReadReq.accesses::total    140846855                       # number of ReadReq accesses(hits+misses) (Count)
board.cache_hierarchy.l1dcaches.ReadReq.missRate::processor.switch.core.data     0.002417                       # miss rate for ReadReq accesses (Ratio)
board.cache_hierarchy.l1dcaches.ReadReq.missRate::total     0.002417                       # miss rate for ReadReq accesses (Ratio)
board.cache_hierarchy.l1dcaches.ReadReq.avgMissLatency::processor.switch.core.data 17389.474615                       # average ReadReq miss latency ((Tick/Count))
board.cache_hierarchy.l1dcaches.ReadReq.avgMissLatency::total 17389.474615                       # average ReadReq miss latency ((Tick/Count))
board.cache_hierarchy.l1dcaches.ReadReq.mshrHits::processor.switch.core.data        10168                       # number of ReadReq MSHR hits (Count)
board.cache_hierarchy.l1dcaches.ReadReq.mshrHits::total        10168                       # number of ReadReq MSHR hits (Count)
board.cache_hierarchy.l1dcaches.ReadReq.mshrMisses::processor.switch.core.data       330291                       # number of ReadReq MSHR misses (Count)
board.cache_hierarchy.l1dcaches.ReadReq.mshrMisses::total       330291                       # number of ReadReq MSHR misses (Count)
board.cache_hierarchy.l1dcaches.ReadReq.mshrUncacheable::processor.switch.core.data         1044                       # number of ReadReq MSHR uncacheable (Count)
board.cache_hierarchy.l1dcaches.ReadReq.mshrUncacheable::total         1044                       # number of ReadReq MSHR uncacheable (Count)
board.cache_hierarchy.l1dcaches.ReadReq.mshrMissLatency::processor.switch.core.data   5624753980                       # number of ReadReq MSHR miss ticks (Tick)
board.cache_hierarchy.l1dcaches.ReadReq.mshrMissLatency::total   5624753980                       # number of ReadReq MSHR miss ticks (Tick)
board.cache_hierarchy.l1dcaches.ReadReq.mshrUncacheableLatency::processor.switch.core.data    218282444                       # number of ReadReq MSHR uncacheable ticks (Tick)
board.cache_hierarchy.l1dcaches.ReadReq.mshrUncacheableLatency::total    218282444                       # number of ReadReq MSHR uncacheable ticks (Tick)
board.cache_hierarchy.l1dcaches.ReadReq.mshrMissRate::processor.switch.core.data     0.002345                       # mshr miss rate for ReadReq accesses (Ratio)
board.cache_hierarchy.l1dcaches.ReadReq.mshrMissRate::total     0.002345                       # mshr miss rate for ReadReq accesses (Ratio)
board.cache_hierarchy.l1dcaches.ReadReq.avgMshrMissLatency::processor.switch.core.data 17029.691938                       # average ReadReq mshr miss latency ((Tick/Count))
board.cache_hierarchy.l1dcaches.ReadReq.avgMshrMissLatency::total 17029.691938                       # average ReadReq mshr miss latency ((Tick/Count))
board.cache_hierarchy.l1dcaches.ReadReq.avgMshrUncacheableLatency::processor.switch.core.data 209082.800766                       # average ReadReq mshr uncacheable latency ((Tick/Count))
board.cache_hierarchy.l1dcaches.ReadReq.avgMshrUncacheableLatency::total 209082.800766                       # average ReadReq mshr uncacheable latency ((Tick/Count))
board.cache_hierarchy.l1dcaches.SoftPFReq.hits::processor.switch.core.data           19                       # number of SoftPFReq hits (Count)
board.cache_hierarchy.l1dcaches.SoftPFReq.hits::total           19                       # number of SoftPFReq hits (Count)
board.cache_hierarchy.l1dcaches.SoftPFReq.misses::processor.switch.core.data           50                       # number of SoftPFReq misses (Count)
board.cache_hierarchy.l1dcaches.SoftPFReq.misses::total           50                       # number of SoftPFReq misses (Count)
board.cache_hierarchy.l1dcaches.SoftPFReq.accesses::processor.switch.core.data           69                       # number of SoftPFReq accesses(hits+misses) (Count)
board.cache_hierarchy.l1dcaches.SoftPFReq.accesses::total           69                       # number of SoftPFReq accesses(hits+misses) (Count)
board.cache_hierarchy.l1dcaches.SoftPFReq.missRate::processor.switch.core.data     0.724638                       # miss rate for SoftPFReq accesses (Ratio)
board.cache_hierarchy.l1dcaches.SoftPFReq.missRate::total     0.724638                       # miss rate for SoftPFReq accesses (Ratio)
board.cache_hierarchy.l1dcaches.SoftPFReq.mshrMisses::processor.switch.core.data           50                       # number of SoftPFReq MSHR misses (Count)
board.cache_hierarchy.l1dcaches.SoftPFReq.mshrMisses::total           50                       # number of SoftPFReq MSHR misses (Count)
board.cache_hierarchy.l1dcaches.SoftPFReq.mshrMissLatency::processor.switch.core.data       877339                       # number of SoftPFReq MSHR miss ticks (Tick)
board.cache_hierarchy.l1dcaches.SoftPFReq.mshrMissLatency::total       877339                       # number of SoftPFReq MSHR miss ticks (Tick)
board.cache_hierarchy.l1dcaches.SoftPFReq.mshrMissRate::processor.switch.core.data     0.724638                       # mshr miss rate for SoftPFReq accesses (Ratio)
board.cache_hierarchy.l1dcaches.SoftPFReq.mshrMissRate::total     0.724638                       # mshr miss rate for SoftPFReq accesses (Ratio)
board.cache_hierarchy.l1dcaches.SoftPFReq.avgMshrMissLatency::processor.switch.core.data 17546.780000                       # average SoftPFReq mshr miss latency ((Tick/Count))
board.cache_hierarchy.l1dcaches.SoftPFReq.avgMshrMissLatency::total 17546.780000                       # average SoftPFReq mshr miss latency ((Tick/Count))
board.cache_hierarchy.l1dcaches.WriteReq.hits::processor.switch.core.data     33645040                       # number of WriteReq hits (Count)
board.cache_hierarchy.l1dcaches.WriteReq.hits::total     33645040                       # number of WriteReq hits (Count)
board.cache_hierarchy.l1dcaches.WriteReq.misses::processor.switch.core.data        57427                       # number of WriteReq misses (Count)
board.cache_hierarchy.l1dcaches.WriteReq.misses::total        57427                       # number of WriteReq misses (Count)
board.cache_hierarchy.l1dcaches.WriteReq.missLatency::processor.switch.core.data    871220789                       # number of WriteReq miss ticks (Tick)
board.cache_hierarchy.l1dcaches.WriteReq.missLatency::total    871220789                       # number of WriteReq miss ticks (Tick)
board.cache_hierarchy.l1dcaches.WriteReq.accesses::processor.switch.core.data     33702467                       # number of WriteReq accesses(hits+misses) (Count)
board.cache_hierarchy.l1dcaches.WriteReq.accesses::total     33702467                       # number of WriteReq accesses(hits+misses) (Count)
board.cache_hierarchy.l1dcaches.WriteReq.missRate::processor.switch.core.data     0.001704                       # miss rate for WriteReq accesses (Ratio)
board.cache_hierarchy.l1dcaches.WriteReq.missRate::total     0.001704                       # miss rate for WriteReq accesses (Ratio)
board.cache_hierarchy.l1dcaches.WriteReq.avgMissLatency::processor.switch.core.data 15170.926376                       # average WriteReq miss latency ((Tick/Count))
board.cache_hierarchy.l1dcaches.WriteReq.avgMissLatency::total 15170.926376                       # average WriteReq miss latency ((Tick/Count))
board.cache_hierarchy.l1dcaches.WriteReq.mshrHits::processor.switch.core.data          426                       # number of WriteReq MSHR hits (Count)
board.cache_hierarchy.l1dcaches.WriteReq.mshrHits::total          426                       # number of WriteReq MSHR hits (Count)
board.cache_hierarchy.l1dcaches.WriteReq.mshrMisses::processor.switch.core.data        57001                       # number of WriteReq MSHR misses (Count)
board.cache_hierarchy.l1dcaches.WriteReq.mshrMisses::total        57001                       # number of WriteReq MSHR misses (Count)
board.cache_hierarchy.l1dcaches.WriteReq.mshrUncacheable::processor.switch.core.data          438                       # number of WriteReq MSHR uncacheable (Count)
board.cache_hierarchy.l1dcaches.WriteReq.mshrUncacheable::total          438                       # number of WriteReq MSHR uncacheable (Count)
board.cache_hierarchy.l1dcaches.WriteReq.mshrMissLatency::processor.switch.core.data    846561710                       # number of WriteReq MSHR miss ticks (Tick)
board.cache_hierarchy.l1dcaches.WriteReq.mshrMissLatency::total    846561710                       # number of WriteReq MSHR miss ticks (Tick)
board.cache_hierarchy.l1dcaches.WriteReq.mshrMissRate::processor.switch.core.data     0.001691                       # mshr miss rate for WriteReq accesses (Ratio)
board.cache_hierarchy.l1dcaches.WriteReq.mshrMissRate::total     0.001691                       # mshr miss rate for WriteReq accesses (Ratio)
board.cache_hierarchy.l1dcaches.WriteReq.avgMshrMissLatency::processor.switch.core.data 14851.699268                       # average WriteReq mshr miss latency ((Tick/Count))
board.cache_hierarchy.l1dcaches.WriteReq.avgMshrMissLatency::total 14851.699268                       # average WriteReq mshr miss latency ((Tick/Count))
board.cache_hierarchy.l1dcaches.power_state.pwrStateResidencyTicks::UNDEFINED 1702891886208664                       # Cumulative time (in ticks) in various power states (Tick)
board.cache_hierarchy.l1dcaches.prefetcher.demandMshrMisses       387292                       # demands not covered by prefetchs (Count)
board.cache_hierarchy.l1dcaches.prefetcher.pfIssued       359876                       # number of hwpf issued (Count)
board.cache_hierarchy.l1dcaches.prefetcher.pfUnused          766                       # number of HardPF blocks evicted w/o reference (Count)
board.cache_hierarchy.l1dcaches.prefetcher.pfUseful       356066                       # number of useful prefetch (Count)
board.cache_hierarchy.l1dcaches.prefetcher.pfUsefulButMiss            0                       # number of hit on prefetch but cache block is not in an usable state (Count)
board.cache_hierarchy.l1dcaches.prefetcher.accuracy     0.989413                       # accuracy of the prefetcher (Count)
board.cache_hierarchy.l1dcaches.prefetcher.coverage     0.478997                       # coverage brought by this prefetcher (Count)
board.cache_hierarchy.l1dcaches.prefetcher.pfHitInCache          681                       # number of prefetches hitting in cache (Count)
board.cache_hierarchy.l1dcaches.prefetcher.pfHitInMSHR         1886                       # number of prefetches hitting in a MSHR (Count)
board.cache_hierarchy.l1dcaches.prefetcher.pfHitInWB            0                       # number of prefetches hit in the Write Buffer (Count)
board.cache_hierarchy.l1dcaches.prefetcher.pfLate         2567                       # number of late prefetches (hitting in cache, MSHR or WB) (Count)
board.cache_hierarchy.l1dcaches.prefetcher.pfIdentified       361244                       # number of prefetch candidates identified (Count)
board.cache_hierarchy.l1dcaches.prefetcher.pfBufferHit         1123                       # number of redundant prefetches already in prefetch queue (Count)
board.cache_hierarchy.l1dcaches.prefetcher.pfInCache            0                       # number of redundant prefetches already in cache/mshr dropped (Count)
board.cache_hierarchy.l1dcaches.prefetcher.pfRemovedDemand           13                       # number of prefetches dropped due to a demand for the same address (Count)
board.cache_hierarchy.l1dcaches.prefetcher.pfRemovedFull            0                       # number of prefetches dropped due to prefetch queue size (Count)
board.cache_hierarchy.l1dcaches.prefetcher.pfSpanPage         3392                       # number of prefetches that crossed the page (Count)
board.cache_hierarchy.l1dcaches.prefetcher.pfUsefulSpanPage            0                       # number of prefetches that is useful and crossed the page (Count)
board.cache_hierarchy.l1dcaches.prefetcher.power_state.pwrStateResidencyTicks::UNDEFINED 1702891886208664                       # Cumulative time (in ticks) in various power states (Tick)
board.cache_hierarchy.l1dcaches.tags.tagsInUse   250.756901                       # Average ticks per tags in use ((Tick/Count))
board.cache_hierarchy.l1dcaches.tags.totalRefs    174848974                       # Total number of references to valid blocks. (Count)
board.cache_hierarchy.l1dcaches.tags.sampledRefs       744386                       # Sample count of references to valid blocks. (Count)
board.cache_hierarchy.l1dcaches.tags.avgRefs   234.890197                       # Average number of references to valid blocks. ((Count/Count))
board.cache_hierarchy.l1dcaches.tags.warmupTick 1702827194577970                       # The tick when the warmup percentage was hit. (Tick)
board.cache_hierarchy.l1dcaches.tags.occupancies::cache_hierarchy.l1dcaches.prefetcher   112.860065                       # Average occupied blocks per tick, per requestor ((Count/Tick))
board.cache_hierarchy.l1dcaches.tags.occupancies::processor.switch.core.data   137.896836                       # Average occupied blocks per tick, per requestor ((Count/Tick))
board.cache_hierarchy.l1dcaches.tags.avgOccs::cache_hierarchy.l1dcaches.prefetcher     0.440860                       # Average percentage of cache occupancy ((Ratio/Tick))
board.cache_hierarchy.l1dcaches.tags.avgOccs::processor.switch.core.data     0.538660                       # Average percentage of cache occupancy ((Ratio/Tick))
board.cache_hierarchy.l1dcaches.tags.avgOccs::total     0.979519                       # Average percentage of cache occupancy ((Ratio/Tick))
board.cache_hierarchy.l1dcaches.tags.occupanciesTaskId::1022           23                       # Occupied blocks per task id (Count)
board.cache_hierarchy.l1dcaches.tags.occupanciesTaskId::1024          233                       # Occupied blocks per task id (Count)
board.cache_hierarchy.l1dcaches.tags.ageTaskId_1022::0            4                       # Occupied blocks per task id, per block age (Count)
board.cache_hierarchy.l1dcaches.tags.ageTaskId_1022::1           19                       # Occupied blocks per task id, per block age (Count)
board.cache_hierarchy.l1dcaches.tags.ageTaskId_1024::0            8                       # Occupied blocks per task id, per block age (Count)
board.cache_hierarchy.l1dcaches.tags.ageTaskId_1024::1          208                       # Occupied blocks per task id, per block age (Count)
board.cache_hierarchy.l1dcaches.tags.ageTaskId_1024::2           16                       # Occupied blocks per task id, per block age (Count)
board.cache_hierarchy.l1dcaches.tags.ageTaskId_1024::3            1                       # Occupied blocks per task id, per block age (Count)
board.cache_hierarchy.l1dcaches.tags.ratioOccsTaskId::1022     0.089844                       # Ratio of occupied blocks and all blocks, per task id (Ratio)
board.cache_hierarchy.l1dcaches.tags.ratioOccsTaskId::1024     0.910156                       # Ratio of occupied blocks and all blocks, per task id (Ratio)
board.cache_hierarchy.l1dcaches.tags.tagAccesses   1397206586                       # Number of tag accesses (Count)
board.cache_hierarchy.l1dcaches.tags.dataAccesses   1397206586                       # Number of data accesses (Count)
board.cache_hierarchy.l1dcaches.tags.power_state.pwrStateResidencyTicks::UNDEFINED 1702891886208664                       # Cumulative time (in ticks) in various power states (Tick)
board.cache_hierarchy.l1icaches.demandHits::processor.switch.core.inst     69125871                       # number of demand (read+write) hits (Count)
board.cache_hierarchy.l1icaches.demandHits::total     69125871                       # number of demand (read+write) hits (Count)
board.cache_hierarchy.l1icaches.overallHits::processor.switch.core.inst     69125871                       # number of overall hits (Count)
board.cache_hierarchy.l1icaches.overallHits::total     69125871                       # number of overall hits (Count)
board.cache_hierarchy.l1icaches.demandMisses::processor.switch.core.inst        62896                       # number of demand (read+write) misses (Count)
board.cache_hierarchy.l1icaches.demandMisses::total        62896                       # number of demand (read+write) misses (Count)
board.cache_hierarchy.l1icaches.overallMisses::processor.switch.core.inst        62896                       # number of overall misses (Count)
board.cache_hierarchy.l1icaches.overallMisses::total        62896                       # number of overall misses (Count)
board.cache_hierarchy.l1icaches.demandMissLatency::processor.switch.core.inst   1011825397                       # number of demand (read+write) miss ticks (Tick)
board.cache_hierarchy.l1icaches.demandMissLatency::total   1011825397                       # number of demand (read+write) miss ticks (Tick)
board.cache_hierarchy.l1icaches.overallMissLatency::processor.switch.core.inst   1011825397                       # number of overall miss ticks (Tick)
board.cache_hierarchy.l1icaches.overallMissLatency::total   1011825397                       # number of overall miss ticks (Tick)
board.cache_hierarchy.l1icaches.demandAccesses::processor.switch.core.inst     69188767                       # number of demand (read+write) accesses (Count)
board.cache_hierarchy.l1icaches.demandAccesses::total     69188767                       # number of demand (read+write) accesses (Count)
board.cache_hierarchy.l1icaches.overallAccesses::processor.switch.core.inst     69188767                       # number of overall (read+write) accesses (Count)
board.cache_hierarchy.l1icaches.overallAccesses::total     69188767                       # number of overall (read+write) accesses (Count)
board.cache_hierarchy.l1icaches.demandMissRate::processor.switch.core.inst     0.000909                       # miss rate for demand accesses (Ratio)
board.cache_hierarchy.l1icaches.demandMissRate::total     0.000909                       # miss rate for demand accesses (Ratio)
board.cache_hierarchy.l1icaches.overallMissRate::processor.switch.core.inst     0.000909                       # miss rate for overall accesses (Ratio)
board.cache_hierarchy.l1icaches.overallMissRate::total     0.000909                       # miss rate for overall accesses (Ratio)
board.cache_hierarchy.l1icaches.demandAvgMissLatency::processor.switch.core.inst 16087.277363                       # average overall miss latency in ticks ((Tick/Count))
board.cache_hierarchy.l1icaches.demandAvgMissLatency::total 16087.277363                       # average overall miss latency in ticks ((Tick/Count))
board.cache_hierarchy.l1icaches.overallAvgMissLatency::processor.switch.core.inst 16087.277363                       # average overall miss latency ((Tick/Count))
board.cache_hierarchy.l1icaches.overallAvgMissLatency::total 16087.277363                       # average overall miss latency ((Tick/Count))
board.cache_hierarchy.l1icaches.blockedCycles::no_mshrs            0                       # number of cycles access was blocked (Cycle)
board.cache_hierarchy.l1icaches.blockedCycles::no_targets            0                       # number of cycles access was blocked (Cycle)
board.cache_hierarchy.l1icaches.blockedCauses::no_mshrs            0                       # number of times access was blocked (Count)
board.cache_hierarchy.l1icaches.blockedCauses::no_targets            0                       # number of times access was blocked (Count)
board.cache_hierarchy.l1icaches.avgBlocked::no_mshrs          nan                       # average number of cycles each access was blocked ((Cycle/Count))
board.cache_hierarchy.l1icaches.avgBlocked::no_targets          nan                       # average number of cycles each access was blocked ((Cycle/Count))
board.cache_hierarchy.l1icaches.demandMshrHits::processor.switch.core.inst         5284                       # number of demand (read+write) MSHR hits (Count)
board.cache_hierarchy.l1icaches.demandMshrHits::total         5284                       # number of demand (read+write) MSHR hits (Count)
board.cache_hierarchy.l1icaches.overallMshrHits::processor.switch.core.inst         5284                       # number of overall MSHR hits (Count)
board.cache_hierarchy.l1icaches.overallMshrHits::total         5284                       # number of overall MSHR hits (Count)
board.cache_hierarchy.l1icaches.demandMshrMisses::processor.switch.core.inst        57612                       # number of demand (read+write) MSHR misses (Count)
board.cache_hierarchy.l1icaches.demandMshrMisses::total        57612                       # number of demand (read+write) MSHR misses (Count)
board.cache_hierarchy.l1icaches.overallMshrMisses::processor.switch.core.inst        57612                       # number of overall MSHR misses (Count)
board.cache_hierarchy.l1icaches.overallMshrMisses::total        57612                       # number of overall MSHR misses (Count)
board.cache_hierarchy.l1icaches.demandMshrMissLatency::processor.switch.core.inst    868903337                       # number of demand (read+write) MSHR miss ticks (Tick)
board.cache_hierarchy.l1icaches.demandMshrMissLatency::total    868903337                       # number of demand (read+write) MSHR miss ticks (Tick)
board.cache_hierarchy.l1icaches.overallMshrMissLatency::processor.switch.core.inst    868903337                       # number of overall MSHR miss ticks (Tick)
board.cache_hierarchy.l1icaches.overallMshrMissLatency::total    868903337                       # number of overall MSHR miss ticks (Tick)
board.cache_hierarchy.l1icaches.demandMshrMissRate::processor.switch.core.inst     0.000833                       # mshr miss ratio for demand accesses (Ratio)
board.cache_hierarchy.l1icaches.demandMshrMissRate::total     0.000833                       # mshr miss ratio for demand accesses (Ratio)
board.cache_hierarchy.l1icaches.overallMshrMissRate::processor.switch.core.inst     0.000833                       # mshr miss ratio for overall accesses (Ratio)
board.cache_hierarchy.l1icaches.overallMshrMissRate::total     0.000833                       # mshr miss ratio for overall accesses (Ratio)
board.cache_hierarchy.l1icaches.demandAvgMshrMissLatency::processor.switch.core.inst 15081.985298                       # average overall mshr miss latency ((Tick/Count))
board.cache_hierarchy.l1icaches.demandAvgMshrMissLatency::total 15081.985298                       # average overall mshr miss latency ((Tick/Count))
board.cache_hierarchy.l1icaches.overallAvgMshrMissLatency::processor.switch.core.inst 15081.985298                       # average overall mshr miss latency ((Tick/Count))
board.cache_hierarchy.l1icaches.overallAvgMshrMissLatency::total 15081.985298                       # average overall mshr miss latency ((Tick/Count))
board.cache_hierarchy.l1icaches.replacements        57356                       # number of replacements (Count)
[...]
board.processor.switch.core.fetch.nisnDist::3     17788056      8.66%     33.00% # Number of instructions fetched each cycle (Total) (Count)
board.processor.switch.core.fetch.nisnDist::4      5955669      2.90%     35.90% # Number of instructions fetched each cycle (Total) (Count)
board.processor.switch.core.fetch.nisnDist::5     10346387      5.04%     40.94% # Number of instructions fetched each cycle (Total) (Count)
board.processor.switch.core.fetch.nisnDist::6      6964980      3.39%     44.33% # Number of instructions fetched each cycle (Total) (Count)
board.processor.switch.core.fetch.nisnDist::7     13814499      6.73%     51.05% # Number of instructions fetched each cycle (Total) (Count)
board.processor.switch.core.fetch.nisnDist::8    100522407     48.95%    100.00% # Number of instructions fetched each cycle (Total) (Count)
board.processor.switch.core.fetch.nisnDist::overflows            0      0.00%    100.00% # Number of instructions fetched each cycle (Total) (Count)
board.processor.switch.core.fetch.nisnDist::min_value            0                       # Number of instructions fetched each cycle (Total) (Count)
board.processor.switch.core.fetch.nisnDist::max_value            8                       # Number of instructions fetched each cycle (Total) (Count)
board.processor.switch.core.fetch.nisnDist::total    205376122                       # Number of instructions fetched each cycle (Total) (Count)
board.processor.switch.core.fetchStats0.numInsts    587719635                       # Number of instructions fetched (thread level) (Count)
board.processor.switch.core.fetchStats0.numOps            0                       # Number of ops (including micro ops) fetched (thread level) (Count)
board.processor.switch.core.fetchStats0.fetchRate     2.843703                       # Number of inst fetches per cycle ((Count/Cycle))
board.processor.switch.core.fetchStats0.numBranches     44272428                       # Number of branches fetched (Count)
board.processor.switch.core.fetchStats0.branchRate     0.214214                       # Number of branch fetches per cycle (Ratio)
board.processor.switch.core.fetchStats0.icacheStallCycles      1715053                       # ICache total stall cycles (Cycle)
board.processor.switch.core.fetchStats0.numFetchSuspends            0                       # Number of times Execute suspended instruction fetching (Count)
board.processor.switch.core.iew.idleCycles            0                       # Number of cycles IEW is idle (Cycle)
board.processor.switch.core.iew.squashCycles       592049                       # Number of cycles IEW is squashing (Cycle)
board.processor.switch.core.iew.blockCycles     12020548                       # Number of cycles IEW is blocking (Cycle)
board.processor.switch.core.iew.unblockCycles       123141                       # Number of cycles IEW is unblocking (Cycle)
board.processor.switch.core.iew.dispatchedInsts   1065357807                       # Number of instructions dispatched to IQ (Count)
board.processor.switch.core.iew.dispSquashedInsts         3336                       # Number of squashed instructions skipped by dispatch (Count)
board.processor.switch.core.iew.dispLoadInsts    162938197                       # Number of dispatched load instructions (Count)
board.processor.switch.core.iew.dispStoreInsts     35657122                       # Number of dispatched store instructions (Count)
board.processor.switch.core.iew.dispNonSpecInsts        12559                       # Number of dispatched non-speculative instructions (Count)
board.processor.switch.core.iew.iqFullEvents        74510                       # Number of times the IQ has become full, causing a stall (Count)
board.processor.switch.core.iew.lsqFullEvents         6585                       # Number of times the LSQ has become full, causing a stall (Count)
board.processor.switch.core.iew.memOrderViolationEvents         6158                       # Number of memory order violations (Count)
board.processor.switch.core.iew.predictedTakenIncorrect       294449                       # Number of branches that were predicted taken incorrectly (Count)
board.processor.switch.core.iew.predictedNotTakenIncorrect       305658                       # Number of branches that were predicted not taken incorrectly (Count)
board.processor.switch.core.iew.branchMispredicts       600107                       # Number of branch mispredicts detected at execute (Count)
board.processor.switch.core.iew.instsToCommit   1046206212                       # Cumulative count of insts sent to commit (Count)
board.processor.switch.core.iew.writebackCount   1045726328                       # Cumulative count of insts written-back (Count)
board.processor.switch.core.iew.producerInst    736809340                       # Number of instructions producing a value (Count)
board.processor.switch.core.iew.consumerInst   1186820286                       # Number of instructions consuming a value (Count)
board.processor.switch.core.iew.wbRate       5.059785                       # Insts written-back per cycle ((Count/Cycle))
board.processor.switch.core.iew.wbFanout     0.620826                       # Average fanout of values written-back ((Count/Count))
board.processor.switch.core.lsq0.forwLoads     19751148                       # Number of loads that had data forwarded from stores (Count)
board.processor.switch.core.lsq0.squashedLoads      7945371                       # Number of loads squashed (Count)
board.processor.switch.core.lsq0.ignoredResponses          199                       # Number of memory responses ignored because the instruction is squashed (Count)
board.processor.switch.core.lsq0.memOrderViolation         6158                       # Number of memory ordering violations (Count)
board.processor.switch.core.lsq0.squashedStores      1950285                       # Number of stores squashed (Count)
board.processor.switch.core.lsq0.rescheduledLoads      9214108                       # Number of loads that were rescheduled (Count)
board.processor.switch.core.lsq0.blockedByCache            8                       # Number of times an access to memory failed due to the cache being blocked (Count)
board.processor.switch.core.lsq0.loadToUse::samples    154992745                       # Distribution of cycle latency between the first time a load is issued and its completion (Unspecified)
board.processor.switch.core.lsq0.loadToUse::mean     3.087237                       # Distribution of cycle latency between the first time a load is issued and its completion (Unspecified)
board.processor.switch.core.lsq0.loadToUse::stdev     5.951024                       # Distribution of cycle latency between the first time a load is issued and its completion (Unspecified)
board.processor.switch.core.lsq0.loadToUse::0-9    150287281     96.96%     96.96% # Distribution of cycle latency between the first time a load is issued and its completion (Unspecified)
board.processor.switch.core.lsq0.loadToUse::10-19      3973113      2.56%     99.53% # Distribution of cycle latency between the first time a load is issued and its completion (Unspecified)
board.processor.switch.core.lsq0.loadToUse::20-29       486931      0.31%     99.84% # Distribution of cycle latency between the first time a load is issued and its completion (Unspecified)
board.processor.switch.core.lsq0.loadToUse::30-39         8565      0.01%     99.85% # Distribution of cycle latency between the first time a load is issued and its completion (Unspecified)
board.processor.switch.core.lsq0.loadToUse::40-49        14709      0.01%     99.86% # Distribution of cycle latency between the first time a load is issued and its completion (Unspecified)
board.processor.switch.core.lsq0.loadToUse::50-59         1664      0.00%     99.86% # Distribution of cycle latency between the first time a load is issued and its completion (Unspecified)
board.processor.switch.core.lsq0.loadToUse::60-69          446      0.00%     99.86% # Distribution of cycle latency between the first time a load is issued and its completion (Unspecified)
board.processor.switch.core.lsq0.loadToUse::70-79          148      0.00%     99.86% # Distribution of cycle latency between the first time a load is issued and its completion (Unspecified)
board.processor.switch.core.lsq0.loadToUse::80-89          167      0.00%     99.86% # Distribution of cycle latency between the first time a load is issued and its completion (Unspecified)
board.processor.switch.core.lsq0.loadToUse::90-99          296      0.00%     99.86% # Distribution of cycle latency between the first time a load is issued and its completion (Unspecified)
board.processor.switch.core.lsq0.loadToUse::100-109         1990      0.00%     99.86% # Distribution of cycle latency between the first time a load is issued and its completion (Unspecified)
board.processor.switch.core.lsq0.loadToUse::110-119        17336      0.01%     99.87% # Distribution of cycle latency between the first time a load is issued and its completion (Unspecified)
board.processor.switch.core.lsq0.loadToUse::120-129        66565      0.04%     99.91% # Distribution of cycle latency between the first time a load is issued and its completion (Unspecified)
board.processor.switch.core.lsq0.loadToUse::130-139        59639      0.04%     99.95% # Distribution of cycle latency between the first time a load is issued and its completion (Unspecified)
board.processor.switch.core.lsq0.loadToUse::140-149        33644      0.02%     99.97% # Distribution of cycle latency between the first time a load is issued and its completion (Unspecified)
board.processor.switch.core.lsq0.loadToUse::150-159        12455      0.01%     99.98% # Distribution of cycle latency between the first time a load is issued and its completion (Unspecified)
board.processor.switch.core.lsq0.loadToUse::160-169         8076      0.01%     99.99% # Distribution of cycle latency between the first time a load is issued and its completion (Unspecified)
board.processor.switch.core.lsq0.loadToUse::170-179         8135      0.01%     99.99% # Distribution of cycle latency between the first time a load is issued and its completion (Unspecified)
board.processor.switch.core.lsq0.loadToUse::180-189         4922      0.00%    100.00% # Distribution of cycle latency between the first time a load is issued and its completion (Unspecified)
board.processor.switch.core.lsq0.loadToUse::190-199         2131      0.00%    100.00% # Distribution of cycle latency between the first time a load is issued and its completion (Unspecified)
board.processor.switch.core.lsq0.loadToUse::200-209         1431      0.00%    100.00% # Distribution of cycle latency between the first time a load is issued and its completion (Unspecified)
board.processor.switch.core.lsq0.loadToUse::210-219           86      0.00%    100.00% # Distribution of cycle latency between the first time a load is issued and its completion (Unspecified)
board.processor.switch.core.lsq0.loadToUse::220-229          584      0.00%    100.00% # Distribution of cycle latency between the first time a load is issued and its completion (Unspecified)
board.processor.switch.core.lsq0.loadToUse::230-239           13      0.00%    100.00% # Distribution of cycle latency between the first time a load is issued and its completion (Unspecified)
board.processor.switch.core.lsq0.loadToUse::240-249          216      0.00%    100.00% # Distribution of cycle latency between the first time a load is issued and its completion (Unspecified)
board.processor.switch.core.lsq0.loadToUse::250-259          210      0.00%    100.00% # Distribution of cycle latency between the first time a load is issued and its completion (Unspecified)
board.processor.switch.core.lsq0.loadToUse::260-269          122      0.00%    100.00% # Distribution of cycle latency between the first time a load is issued and its completion (Unspecified)
board.processor.switch.core.lsq0.loadToUse::270-279          148      0.00%    100.00% # Distribution of cycle latency between the first time a load is issued and its completion (Unspecified)
board.processor.switch.core.lsq0.loadToUse::280-289           87      0.00%    100.00% # Distribution of cycle latency between the first time a load is issued and its completion (Unspecified)
board.processor.switch.core.lsq0.loadToUse::290-299           15      0.00%    100.00% # Distribution of cycle latency between the first time a load is issued and its completion (Unspecified)
board.processor.switch.core.lsq0.loadToUse::overflows         1620      0.00%    100.00% # Distribution of cycle latency between the first time a load is issued and its completion (Unspecified)
board.processor.switch.core.lsq0.loadToUse::min_value            2                       # Distribution of cycle latency between the first time a load is issued and its completion (Unspecified)
board.processor.switch.core.lsq0.loadToUse::max_value          936                       # Distribution of cycle latency between the first time a load is issued and its completion (Unspecified)
board.processor.switch.core.lsq0.loadToUse::total    154992745                       # Distribution of cycle latency between the first time a load is issued and its completion (Unspecified)
board.processor.switch.core.mmu.dtb.rdAccesses    169830037                       # TLB accesses on read requests (Count)
board.processor.switch.core.mmu.dtb.wrAccesses     34482038                       # TLB accesses on write requests (Count)
board.processor.switch.core.mmu.dtb.rdMisses        13525                       # TLB misses on read requests (Count)
board.processor.switch.core.mmu.dtb.wrMisses         4011                       # TLB misses on write requests (Count)
board.processor.switch.core.mmu.dtb.walker.power_state.pwrStateResidencyTicks::UNDEFINED 1702891886208664                       # Cumulative time (in ticks) in various power states (Tick)
board.processor.switch.core.mmu.itb.rdAccesses            0                       # TLB accesses on read requests (Count)
board.processor.switch.core.mmu.itb.wrAccesses     69190021                       # TLB accesses on write requests (Count)
board.processor.switch.core.mmu.itb.rdMisses            0                       # TLB misses on read requests (Count)
board.processor.switch.core.mmu.itb.wrMisses          519                       # TLB misses on write requests (Count)
board.processor.switch.core.mmu.itb.walker.power_state.pwrStateResidencyTicks::UNDEFINED 1702891886208664                       # Cumulative time (in ticks) in various power states (Tick)
board.processor.switch.core.power_state.numTransitions            4                       # Number of power state transitions (Count)
board.processor.switch.core.power_state.ticksClkGated::samples            2                       # Distribution of time spent in the clock gated state (Tick)
board.processor.switch.core.power_state.ticksClkGated::mean 1496861.500000                       # Distribution of time spent in the clock gated state (Tick)
board.processor.switch.core.power_state.ticksClkGated::stdev 133458.626774                       # Distribution of time spent in the clock gated state (Tick)
board.processor.switch.core.power_state.ticksClkGated::1000-5e+10            2    100.00%    100.00% # Distribution of time spent in the clock gated state (Tick)
board.processor.switch.core.power_state.ticksClkGated::min_value      1402492                       # Distribution of time spent in the clock gated state (Tick)
board.processor.switch.core.power_state.ticksClkGated::max_value      1591231                       # Distribution of time spent in the clock gated state (Tick)
board.processor.switch.core.power_state.ticksClkGated::total            2                       # Distribution of time spent in the clock gated state (Tick)
board.processor.switch.core.power_state.pwrStateResidencyTicks::ON  64313442619                       # Cumulative time (in ticks) in various power states (Tick)
board.processor.switch.core.power_state.pwrStateResidencyTicks::CLK_GATED      2993723                       # Cumulative time (in ticks) in various power states (Tick)
board.processor.switch.core.power_state.pwrStateResidencyTicks::OFF 1702827569772322                       # Cumulative time (in ticks) in various power states (Tick)
board.processor.switch.core.rename.squashCycles       592049                       # Number of cycles rename is squashing (Cycle)
board.processor.switch.core.rename.idleCycles     21966884                       # Number of cycles rename is idle (Cycle)
board.processor.switch.core.rename.blockCycles     13506600                       # Number of cycles rename is blocking (Cycle)
board.processor.switch.core.rename.serializeStallCycles      1133645                       # count of cycles rename stalled for serializing inst (Cycle)
board.processor.switch.core.rename.runCycles    143724276                       # Number of cycles rename is running (Cycle)
board.processor.switch.core.rename.unblockCycles     24452602                       # Number of cycles rename is unblocking (Cycle)
board.processor.switch.core.rename.renamedInsts   1071731613                       # Number of instructions processed by rename (Count)
board.processor.switch.core.rename.ROBFullEvents        27564                       # Number of times rename has blocked due to ROB full (Count)
board.processor.switch.core.rename.IQFullEvents     17611572                       # Number of times rename has blocked due to IQ full (Count)
board.processor.switch.core.rename.LQFullEvents         1271                       # Number of times rename has blocked due to LQ full (Count)
board.processor.switch.core.rename.SQFullEvents       113054                       # Number of times rename has blocked due to SQ full (Count)
board.processor.switch.core.rename.renamedOperands   1281887211                       # Number of destination operands rename has renamed (Count)
board.processor.switch.core.rename.lookups   2560603877                       # Number of register rename lookups that rename has made (Count)
board.processor.switch.core.rename.intLookups    513521499                       # Number of integer rename lookups (Count)
board.processor.switch.core.rename.fpLookups   1070024770                       # Number of floating rename lookups (Count)
board.processor.switch.core.rename.committedMaps   1211875901                       # Number of HB maps that are committed (Count)
board.processor.switch.core.rename.undoneMaps     70011134                       # Number of HB maps that are undone due to squashing (Count)
board.processor.switch.core.rename.serializing        10993                       # count of serializing insts renamed (Count)
board.processor.switch.core.rename.tempSerializing        11091                       # count of temporary serializing insts renamed (Count)
board.processor.switch.core.rename.skidInsts     71698264                       # count of insts added to the skid buffer (Count)
board.processor.switch.core.rob.reads      1160500383                       # The number of ROB reads (Count)
board.processor.switch.core.rob.writes     2137288458                       # The number of ROB writes (Count)
board.processor.switch.core.thread_0.numInsts    549496090                       # Number of Instructions committed (Count)
board.processor.switch.core.thread_0.numOps   1014936275                       # Number of Ops committed (Count)
board.processor.switch.core.thread_0.numMemRefs            0                       # Number of Memory References (Count)
board.workload.inst.arm                             0                       # number of arm instructions executed (Count)
board.workload.inst.quiesce                         0                       # number of quiesce instructions executed (Count)

---------- End Simulation Statistics   ----------
