
---------- Begin Simulation Statistics ----------
simSeconds                                   0.253843                       # Number of seconds simulated (Second)
simTicks                                 253843020971                       # Number of ticks simulated (Tick)
finalTick                                103494075782208                       # Number of ticks from beginning of simulation (restored from checkpoints and never reset) (Tick)
simFreq                                  1000000000000                       # The number of ticks per simulated second ((Tick/Second))
hostSeconds                                   7054.45                       # Real time elapsed on the host (Second)
hostTickRate                                 35983407                       # The number of ticks simulated per host second (ticks/s) ((Tick/Second))
hostMemory                                    3542892                       # Number of bytes of host memory used (Byte)
simInsts                                   7550722080                       # Number of instructions simulated (Count)
simOps                                     9395770467                       # Number of ops (including micro ops) simulated (Count)
hostInstRate                                  1070349                       # Simulator instruction rate (inst/s) ((Count/Second))
hostOpRate                                    1331893                       # Simulator op (including micro ops) rate (op/s) ((Count/Second))
board.apicbridge.power_state.pwrStateResidencyTicks::UNDEFINED 103494075782208                       # Cumulative time (in ticks) in various power states (Tick)
board.bridge.power_state.pwrStateResidencyTicks::UNDEFINED 103494075782208                       # Cumulative time (in ticks) in various power states (Tick)
board.cache_hierarchy.dptw_caches.demandHits::processor.switch.core.mmu.dtb.walker       240599                       # number of demand (read+write) hits (Count)
board.cache_hierarchy.dptw_caches.demandHits::total       240599                       # number of demand (read+write) hits (Count)
board.cache_hierarchy.dptw_caches.overallHits::processor.switch.core.mmu.dtb.walker       240599                       # number of overall hits (Count)
board.cache_hierarchy.dptw_caches.overallHits::total       240599                       # number of overall hits (Count)
board.cache_hierarchy.dptw_caches.demandMisses::processor.switch.core.mmu.dtb.walker         5776                       # number of demand (read+write) misses (Count)
board.cache_hierarchy.dptw_caches.demandMisses::total         5776                       # number of demand (read+write) misses (Count)
board.cache_hierarchy.dptw_caches.overallMisses::processor.switch.core.mmu.dtb.walker         5776                       # number of overall misses (Count)
board.cache_hierarchy.dptw_caches.overallMisses::total         5776                       # number of overall misses (Count)
board.cache_hierarchy.dptw_caches.demandMissLatency::processor.switch.core.mmu.dtb.walker    212500395                       # number of demand (read+write) miss ticks (Tick)
board.cache_hierarchy.dptw_caches.demandMissLatency::total    212500395                       # number of demand (read+write) miss ticks (Tick)
board.cache_hierarchy.dptw_caches.overallMissLatency::processor.switch.core.mmu.dtb.walker    212500395                       # number of overall miss ticks (Tick)
board.cache_hierarchy.dptw_caches.overallMissLatency::total    212500395                       # number of overall miss ticks (Tick)
board.cache_hierarchy.dptw_caches.demandAccesses::processor.switch.core.mmu.dtb.walker       246375                       # number of demand (read+write) accesses (Count)
board.cache_hierarchy.dptw_caches.demandAccesses::total       246375                       # number of demand (read+write) accesses (Count)
board.cache_hierarchy.dptw_caches.overallAccesses::processor.switch.core.mmu.dtb.walker       246375                       # number of overall (read+write) accesses (Count)
board.cache_hierarchy.dptw_caches.overallAccesses::total       246375                       # number of overall (read+write) accesses (Count)
board.cache_hierarchy.dptw_caches.demandMissRate::processor.switch.core.mmu.dtb.walker     0.023444                       # miss rate for demand accesses (Ratio)
board.cache_hierarchy.dptw_caches.demandMissRate::total     0.023444                       # miss rate for demand accesses (Ratio)
board.cache_hierarchy.dptw_caches.overallMissRate::processor.switch.core.mmu.dtb.walker     0.023444                       # miss rate for overall accesses (Ratio)
board.cache_hierarchy.dptw_caches.overallMissRate::total     0.023444                       # miss rate for overall accesses (Ratio)
board.cache_hierarchy.dptw_caches.demandAvgMissLatency::processor.switch.core.mmu.dtb.walker 36790.234591                       # average overall miss latency in ticks ((Tick/Count))
board.cache_hierarchy.dptw_caches.demandAvgMissLatency::total 36790.234591                       # average overall miss latency in ticks ((Tick/Count))
board.cache_hierarchy.dptw_caches.overallAvgMissLatency::processor.switch.core.mmu.dtb.walker 36790.234591                       # average overall miss latency ((Tick/Count))
board.cache_hierarchy.dptw_caches.overallAvgMissLatency::total 36790.234591                       # average overall miss latency ((Tick/Count))
board.cache_hierarchy.dptw_caches.blockedCycles::no_mshrs            0                       # number of cycles access was blocked (Cycle)
board.cache_hierarchy.dptw_caches.blockedCycles::no_targets            0                       # number of cycles access was blocked (Cycle)
board.cache_hierarchy.dptw_caches.blockedCauses::no_mshrs            0                       # number of times access was blocked (Count)
board.cache_hierarchy.dptw_caches.blockedCauses::no_targets            0                       # number of times access was blocked (Count)
board.cache_hierarchy.dptw_caches.avgBlocked::no_mshrs          nan                       # average number of cycles each access was blocked ((Cycle/Count))
board.cache_hierarchy.dptw_caches.avgBlocked::no_targets          nan                       # average number of cycles each access was blocked ((Cycle/Count))
board.cache_hierarchy.dptw_caches.demandMshrMisses::processor.switch.core.mmu.dtb.walker         5776                       # number of demand (read+write) MSHR misses (Count)
board.cache_hierarchy.dptw_caches.demandMshrMisses::total         5776                       # number of demand (read+write) MSHR misses (Count)
board.cache_hierarchy.dptw_caches.overallMshrMisses::processor.switch.core.mmu.dtb.walker         5776                       # number of overall MSHR misses (Count)
board.cache_hierarchy.dptw_caches.overallMshrMisses::total         5776                       # number of overall MSHR misses (Count)
board.cache_hierarchy.dptw_caches.demandMshrMissLatency::processor.switch.core.mmu.dtb.walker    210692507                       # number of demand (read+write) MSHR miss ticks (Tick)
board.cache_hierarchy.dptw_caches.demandMshrMissLatency::total    210692507                       # number of demand (read+write) MSHR miss ticks (Tick)
board.cache_hierarchy.dptw_caches.overallMshrMissLatency::processor.switch.core.mmu.dtb.walker    210692507                       # number of overall MSHR miss ticks (Tick)
board.cache_hierarchy.dptw_caches.overallMshrMissLatency::total    210692507                       # number of overall MSHR miss ticks (Tick)
board.cache_hierarchy.dptw_caches.demandMshrMissRate::processor.switch.core.mmu.dtb.walker     0.023444                       # mshr miss ratio for demand accesses (Ratio)
board.cache_hierarchy.dptw_caches.demandMshrMissRate::total     0.023444                       # mshr miss ratio for demand accesses (Ratio)
board.cache_hierarchy.dptw_caches.overallMshrMissRate::processor.switch.core.mmu.dtb.walker     0.023444                       # mshr miss ratio for overall accesses (Ratio)
board.cache_hierarchy.dptw_caches.overallMshrMissRate::total     0.023444                       # mshr miss ratio for overall accesses (Ratio)
board.cache_hierarchy.dptw_caches.demandAvgMshrMissLatency::processor.switch.core.mmu.dtb.walker 36477.234591                       # average overall mshr miss latency ((Tick/Count))
board.cache_hierarchy.dptw_caches.demandAvgMshrMissLatency::total 36477.234591                       # average overall mshr miss latency ((Tick/Count))
board.cache_hierarchy.dptw_caches.overallAvgMshrMissLatency::processor.switch.core.mmu.dtb.walker 36477.234591                       # average overall mshr miss latency ((Tick/Count))
board.cache_hierarchy.dptw_caches.overallAvgMshrMissLatency::total 36477.234591                       # average overall mshr miss latency ((Tick/Count))
board.cache_hierarchy.dptw_caches.replacements         5590                       # number of replacements (Count)
board.cache_hierarchy.dptw_caches.ReadReq.hits::processor.switch.core.mmu.dtb.walker       240599                       # number of ReadReq hits (Count)
board.cache_hierarchy.dptw_caches.ReadReq.hits::total       240599                       # number of ReadReq hits (Count)
board.cache_hierarchy.dptw_caches.ReadReq.misses::processor.switch.core.mmu.dtb.walker         5776                       # number of ReadReq misses (Count)
board.cache_hierarchy.dptw_caches.ReadReq.misses::total         5776                       # number of ReadReq misses (Count)
board.cache_hierarchy.dptw_caches.ReadReq.missLatency::processor.switch.core.mmu.dtb.walker    212500395                       # number of ReadReq miss ticks (Tick)
board.cache_hierarchy.dptw_caches.ReadReq.missLatency::total    212500395                       # number of ReadReq miss ticks (Tick)
board.cache_hierarchy.dptw_caches.ReadReq.accesses::processor.switch.core.mmu.dtb.walker       246375                       # number of ReadReq accesses(hits+misses) (Count)
board.cache_hierarchy.dptw_caches.ReadReq.accesses::total       246375                       # number of ReadReq accesses(hits+misses) (Count)
board.cache_hierarchy.dptw_caches.ReadReq.missRate::processor.switch.core.mmu.dtb.walker     0.023444                       # miss rate for ReadReq accesses (Ratio)
board.cache_hierarchy.dptw_caches.ReadReq.missRate::total     0.023444                       # miss rate for ReadReq accesses (Ratio)
board.cache_hierarchy.dptw_caches.ReadReq.avgMissLatency::processor.switch.core.mmu.dtb.walker 36790.234591                       # average ReadReq miss latency ((Tick/Count))
board.cache_hierarchy.dptw_caches.ReadReq.avgMissLatency::total 36790.234591                       # average ReadReq miss latency ((Tick/Count))
board.cache_hierarchy.dptw_caches.ReadReq.mshrMisses::processor.switch.core.mmu.dtb.walker         5776                       # number of ReadReq MSHR misses (Count)
board.cache_hierarchy.dptw_caches.ReadReq.mshrMisses::total         5776                       # number of ReadReq MSHR misses (Count)
board.cache_hierarchy.dptw_caches.ReadReq.mshrMissLatency::processor.switch.core.mmu.dtb.walker    210692507                       # number of ReadReq MSHR miss ticks (Tick)
board.cache_hierarchy.dptw_caches.ReadReq.mshrMissLatency::total    210692507                       # number of ReadReq MSHR miss ticks (Tick)
board.cache_hierarchy.dptw_caches.ReadReq.mshrMissRate::processor.switch.core.mmu.dtb.walker     0.023444                       # mshr miss rate for ReadReq accesses (Ratio)
board.cache_hierarchy.dptw_caches.ReadReq.mshrMissRate::total     0.023444                       # mshr miss rate for ReadReq accesses (Ratio)
board.cache_hierarchy.dptw_caches.ReadReq.avgMshrMissLatency::processor.switch.core.mmu.dtb.walker 36477.234591                       # average ReadReq mshr miss latency ((Tick/Count))
board.cache_hierarchy.dptw_caches.ReadReq.avgMshrMissLatency::total 36477.234591                       # average ReadReq mshr miss latency ((Tick/Count))
board.cache_hierarchy.dptw_caches.power_state.pwrStateResidencyTicks::UNDEFINED 103494075782208                       # Cumulative time (in ticks) in various power states (Tick)
board.cache_hierarchy.dptw_caches.tags.tagsInUse   108.648858                       # Average ticks per tags in use ((Tick/Count))
board.cache_hierarchy.dptw_caches.tags.totalRefs       158870                       # Total number of references to valid blocks. (Count)
board.cache_hierarchy.dptw_caches.tags.sampledRefs         5656                       # Sample count of references to valid blocks. (Count)
board.cache_hierarchy.dptw_caches.tags.avgRefs    28.088755                       # Average number of references to valid blocks. ((Count/Count))
board.cache_hierarchy.dptw_caches.tags.warmupTick 103240232799680                       # The tick when the warmup percentage was hit. (Tick)
board.cache_hierarchy.dptw_caches.tags.occupancies::processor.switch.core.mmu.dtb.walker   108.648858                       # Average occupied blocks per tick, per requestor ((Count/Tick))
board.cache_hierarchy.dptw_caches.tags.avgOccs::processor.switch.core.mmu.dtb.walker     0.848819                       # Average percentage of cache occupancy ((Ratio/Tick))
board.cache_hierarchy.dptw_caches.tags.avgOccs::total     0.848819                       # Average percentage of cache occupancy ((Ratio/Tick))
board.cache_hierarchy.dptw_caches.tags.occupanciesTaskId::1024          120                       # Occupied blocks per task id (Count)
board.cache_hierarchy.dptw_caches.tags.ageTaskId_1024::1            2                       # Occupied blocks per task id, per block age (Count)
board.cache_hierarchy.dptw_caches.tags.ageTaskId_1024::2           36                       # Occupied blocks per task id, per block age (Count)
board.cache_hierarchy.dptw_caches.tags.ageTaskId_1024::3           26                       # Occupied blocks per task id, per block age (Count)
board.cache_hierarchy.dptw_caches.tags.ageTaskId_1024::4           56                       # Occupied blocks per task id, per block age (Count)
board.cache_hierarchy.dptw_caches.tags.ratioOccsTaskId::1024     0.937500                       # Ratio of occupied blocks and all blocks, per task id (Ratio)
board.cache_hierarchy.dptw_caches.tags.tagAccesses       991276                       # Number of tag accesses (Count)
board.cache_hierarchy.dptw_caches.tags.dataAccesses       991276                       # Number of data accesses (Count)
board.cache_hierarchy.dptw_caches.tags.power_state.pwrStateResidencyTicks::UNDEFINED 103494075782208                       # Cumulative time (in ticks) in various power states (Tick)
board.cache_hierarchy.iocache.demandMisses::pc.south_bridge.ide          770                       # number of demand (read+write) misses (Count)
board.cache_hierarchy.iocache.demandMisses::total          770                       # number of demand (read+write) misses (Count)
board.cache_hierarchy.iocache.overallMisses::pc.south_bridge.ide          770                       # number of overall misses (Count)
board.cache_hierarchy.iocache.overallMisses::total          770                       # number of overall misses (Count)
board.cache_hierarchy.iocache.demandMissLatency::pc.south_bridge.ide     31881787                       # number of demand (read+write) miss ticks (Tick)
board.cache_hierarchy.iocache.demandMissLatency::total     31881787                       # number of demand (read+write) miss ticks (Tick)
board.cache_hierarchy.iocache.overallMissLatency::pc.south_bridge.ide     31881787                       # number of overall miss ticks (Tick)
board.cache_hierarchy.iocache.overallMissLatency::total     31881787                       # number of overall miss ticks (Tick)
board.cache_hierarchy.iocache.demandAccesses::pc.south_bridge.ide          770                       # number of demand (read+write) accesses (Count)
board.cache_hierarchy.iocache.demandAccesses::total          770                       # number of demand (read+write) accesses (Count)
board.cache_hierarchy.iocache.overallAccesses::pc.south_bridge.ide          770                       # number of overall (read+write) accesses (Count)
board.cache_hierarchy.iocache.overallAccesses::total          770                       # number of overall (read+write) accesses (Count)
board.cache_hierarchy.iocache.demandMissRate::pc.south_bridge.ide            1                       # miss rate for demand accesses (Ratio)
board.cache_hierarchy.iocache.demandMissRate::total            1                       # miss rate for demand accesses (Ratio)
board.cache_hierarchy.iocache.overallMissRate::pc.south_bridge.ide            1                       # miss rate for overall accesses (Ratio)
board.cache_hierarchy.iocache.overallMissRate::total            1                       # miss rate for overall accesses (Ratio)
board.cache_hierarchy.iocache.demandAvgMissLatency::pc.south_bridge.ide 41404.918182                       # average overall miss latency in ticks ((Tick/Count))
board.cache_hierarchy.iocache.demandAvgMissLatency::total 41404.918182                       # average overall miss latency in ticks ((Tick/Count))
board.cache_hierarchy.iocache.overallAvgMissLatency::pc.south_bridge.ide 41404.918182                       # average overall miss latency ((Tick/Count))
board.cache_hierarchy.iocache.overallAvgMissLatency::total 41404.918182                       # average overall miss latency ((Tick/Count))
board.cache_hierarchy.iocache.blockedCycles::no_mshrs            0                       # number of cycles access was blocked (Cycle)
board.cache_hierarchy.iocache.blockedCycles::no_targets            0                       # number of cycles access was blocked (Cycle)
board.cache_hierarchy.iocache.blockedCauses::no_mshrs            0                       # number of times access was blocked (Count)
board.cache_hierarchy.iocache.blockedCauses::no_targets            0                       # number of times access was blocked (Count)
board.cache_hierarchy.iocache.avgBlocked::no_mshrs          nan                       # average number of cycles each access was blocked ((Cycle/Count))
board.cache_hierarchy.iocache.avgBlocked::no_targets          nan                       # average number of cycles each access was blocked ((Cycle/Count))
board.cache_hierarchy.iocache.writebacks::writebacks          752                       # number of writebacks (Count)
board.cache_hierarchy.iocache.writebacks::total          752                       # number of writebacks (Count)
board.cache_hierarchy.iocache.demandMshrMisses::pc.south_bridge.ide          770                       # number of demand (read+write) MSHR misses (Count)
board.cache_hierarchy.iocache.demandMshrMisses::total          770                       # number of demand (read+write) MSHR misses (Count)
board.cache_hierarchy.iocache.overallMshrMisses::pc.south_bridge.ide          770                       # number of overall MSHR misses (Count)
board.cache_hierarchy.iocache.overallMshrMisses::total          770                       # number of overall MSHR misses (Count)
board.cache_hierarchy.iocache.demandMshrMissLatency::pc.south_bridge.ide     19820719                       # number of demand (read+write) MSHR miss ticks (Tick)
board.cache_hierarchy.iocache.demandMshrMissLatency::total     19820719                       # number of demand (read+write) MSHR miss ticks (Tick)
board.cache_hierarchy.iocache.overallMshrMissLatency::pc.south_bridge.ide     19820719                       # number of overall MSHR miss ticks (Tick)
board.cache_hierarchy.iocache.overallMshrMissLatency::total     19820719                       # number of overall MSHR miss ticks (Tick)
board.cache_hierarchy.iocache.demandMshrMissRate::pc.south_bridge.ide            1                       # mshr miss ratio for demand accesses (Ratio)
board.cache_hierarchy.iocache.demandMshrMissRate::total            1                       # mshr miss ratio for demand accesses (Ratio)
board.cache_hierarchy.iocache.overallMshrMissRate::pc.south_bridge.ide            1                       # mshr miss ratio for overall accesses (Ratio)
board.cache_hierarchy.iocache.overallMshrMissRate::total            1                       # mshr miss ratio for overall accesses (Ratio)
board.cache_hierarchy.iocache.demandAvgMshrMissLatency::pc.south_bridge.ide 25741.193506                       # average overall mshr miss latency ((Tick/Count))
board.cache_hierarchy.iocache.demandAvgMshrMissLatency::total 25741.193506                       # average overall mshr miss latency ((Tick/Count))
board.cache_hierarchy.iocache.overallAvgMshrMissLatency::pc.south_bridge.ide 25741.193506                       # average overall mshr miss latency ((Tick/Count))
board.cache_hierarchy.iocache.overallAvgMshrMissLatency::total 25741.193506                       # average overall mshr miss latency ((Tick/Count))
board.cache_hierarchy.iocache.replacements          754                       # number of replacements (Count)
board.cache_hierarchy.iocache.ReadReq.misses::pc.south_bridge.ide            2                       # number of ReadReq misses (Count)
board.cache_hierarchy.iocache.ReadReq.misses::total            2                       # number of ReadReq misses (Count)
board.cache_hierarchy.iocache.ReadReq.missLatency::pc.south_bridge.ide        78562                       # number of ReadReq miss ticks (Tick)
board.cache_hierarchy.iocache.ReadReq.missLatency::total        78562                       # number of ReadReq miss ticks (Tick)
board.cache_hierarchy.iocache.ReadReq.accesses::pc.south_bridge.ide            2                       # number of ReadReq accesses(hits+misses) (Count)
board.cache_hierarchy.iocache.ReadReq.accesses::total            2                       # number of ReadReq accesses(hits+misses) (Count)
board.cache_hierarchy.iocache.ReadReq.missRate::pc.south_bridge.ide            1                       # miss rate for ReadReq accesses (Ratio)
board.cache_hierarchy.iocache.ReadReq.missRate::total            1                       # miss rate for ReadReq accesses (Ratio)
board.cache_hierarchy.iocache.ReadReq.avgMissLatency::pc.south_bridge.ide        39281                       # average ReadReq miss latency ((Tick/Count))
board.cache_hierarchy.iocache.ReadReq.avgMissLatency::total        39281                       # average ReadReq miss latency ((Tick/Count))
board.cache_hierarchy.iocache.ReadReq.mshrMisses::pc.south_bridge.ide            2                       # number of ReadReq MSHR misses (Count)
board.cache_hierarchy.iocache.ReadReq.mshrMisses::total            2                       # number of ReadReq MSHR misses (Count)
board.cache_hierarchy.iocache.ReadReq.mshrMissLatency::pc.south_bridge.ide        47262                       # number of ReadReq MSHR miss ticks (Tick)
board.cache_hierarchy.iocache.ReadReq.mshrMissLatency::total        47262                       # number of ReadReq MSHR miss ticks (Tick)
board.cache_hierarchy.iocache.ReadReq.mshrMissRate::pc.south_bridge.ide            1                       # mshr miss rate for ReadReq accesses (Ratio)
board.cache_hierarchy.iocache.ReadReq.mshrMissRate::total            1                       # mshr miss rate for ReadReq accesses (Ratio)
board.cache_hierarchy.iocache.ReadReq.avgMshrMissLatency::pc.south_bridge.ide        23631                       # average ReadReq mshr miss latency ((Tick/Count))
board.cache_hierarchy.iocache.ReadReq.avgMshrMissLatency::total        23631                       # average ReadReq mshr miss latency ((Tick/Count))
board.cache_hierarchy.iocache.WriteLineReq.misses::pc.south_bridge.ide          768                       # number of WriteLineReq misses (Count)
board.cache_hierarchy.iocache.WriteLineReq.misses::total          768                       # number of WriteLineReq misses (Count)
board.cache_hierarchy.iocache.WriteLineReq.missLatency::pc.south_bridge.ide     31803225                       # number of WriteLineReq miss ticks (Tick)
board.cache_hierarchy.iocache.WriteLineReq.missLatency::total     31803225                       # number of WriteLineReq miss ticks (Tick)
board.cache_hierarchy.iocache.WriteLineReq.accesses::pc.south_bridge.ide          768                       # number of WriteLineReq accesses(hits+misses) (Count)
board.cache_hierarchy.iocache.WriteLineReq.accesses::total          768                       # number of WriteLineReq accesses(hits+misses) (Count)
board.cache_hierarchy.iocache.WriteLineReq.missRate::pc.south_bridge.ide            1                       # miss rate for WriteLineReq accesses (Ratio)
board.cache_hierarchy.iocache.WriteLineReq.missRate::total            1                       # miss rate for WriteLineReq accesses (Ratio)
board.cache_hierarchy.iocache.WriteLineReq.avgMissLatency::pc.south_bridge.ide 41410.449219                       # average WriteLineReq miss latency ((Tick/Count))
board.cache_hierarchy.iocache.WriteLineReq.avgMissLatency::total 41410.449219                       # average WriteLineReq miss latency ((Tick/Count))
board.cache_hierarchy.iocache.WriteLineReq.mshrMisses::pc.south_bridge.ide          768                       # number of WriteLineReq MSHR misses (Count)
board.cache_hierarchy.iocache.WriteLineReq.mshrMisses::total          768                       # number of WriteLineReq MSHR misses (Count)
board.cache_hierarchy.iocache.WriteLineReq.mshrMissLatency::pc.south_bridge.ide     19773457                       # number of WriteLineReq MSHR miss ticks (Tick)
board.cache_hierarchy.iocache.WriteLineReq.mshrMissLatency::total     19773457                       # number of WriteLineReq MSHR miss ticks (Tick)
board.cache_hierarchy.iocache.WriteLineReq.mshrMissRate::pc.south_bridge.ide            1                       # mshr miss rate for WriteLineReq accesses (Ratio)
board.cache_hierarchy.iocache.WriteLineReq.mshrMissRate::total            1                       # mshr miss rate for WriteLineReq accesses (Ratio)
board.cache_hierarchy.iocache.WriteLineReq.avgMshrMissLatency::pc.south_bridge.ide 25746.688802                       # average WriteLineReq mshr miss latency ((Tick/Count))
board.cache_hierarchy.iocache.WriteLineReq.avgMshrMissLatency::total 25746.688802                       # average WriteLineReq mshr miss latency ((Tick/Count))
board.cache_hierarchy.iocache.power_state.pwrStateResidencyTicks::UNDEFINED 103494075782208                       # Cumulative time (in ticks) in various power states (Tick)
board.cache_hierarchy.iocache.tags.tagsInUse    15.953694                       # Average ticks per tags in use ((Tick/Count))
board.cache_hierarchy.iocache.tags.totalRefs          754                       # Total number of references to valid blocks. (Count)
board.cache_hierarchy.iocache.tags.sampledRefs          754                       # Sample count of references to valid blocks. (Count)
board.cache_hierarchy.iocache.tags.avgRefs            1                       # Average number of references to valid blocks. ((Count/Count))
board.cache_hierarchy.iocache.tags.warmupTick 103240966438815                       # The tick when the warmup percentage was hit. (Tick)
board.cache_hierarchy.iocache.tags.occupancies::pc.south_bridge.ide    15.953694                       # Average occupied blocks per tick, per requestor ((Count/Tick))
board.cache_hierarchy.iocache.tags.avgOccs::pc.south_bridge.ide     0.997106                       # Average percentage of cache occupancy ((Ratio/Tick))
board.cache_hierarchy.iocache.tags.avgOccs::total     0.997106                       # Average percentage of cache occupancy ((Ratio/Tick))
board.cache_hierarchy.iocache.tags.occupanciesTaskId::1023           16                       # Occupied blocks per task id (Count)
board.cache_hierarchy.iocache.tags.ageTaskId_1023::4           16                       # Occupied blocks per task id, per block age (Count)
board.cache_hierarchy.iocache.tags.ratioOccsTaskId::1023            1                       # Ratio of occupied blocks and all blocks, per task id (Ratio)
board.cache_hierarchy.iocache.tags.tagAccesses         6930                       # Number of tag accesses (Count)
board.cache_hierarchy.iocache.tags.dataAccesses         6930                       # Number of data accesses (Count)
board.cache_hierarchy.iocache.tags.power_state.pwrStateResidencyTicks::UNDEFINED 103494075782208                       # Cumulative time (in ticks) in various power states (Tick)
board.cache_hierarchy.iptw_caches.demandHits::processor.switch.core.mmu.itb.walker          336                       # number of demand (read+write) hits (Count)
board.cache_hierarchy.iptw_caches.demandHits::total          336                       # number of demand (read+write) hits (Count)
board.cache_hierarchy.iptw_caches.overallHits::processor.switch.core.mmu.itb.walker          336                       # number of overall hits (Count)
board.cache_hierarchy.iptw_caches.overallHits::total          336                       # number of overall hits (Count)
board.cache_hierarchy.iptw_caches.demandMisses::processor.switch.core.mmu.itb.walker           48                       # number of demand (read+write) misses (Count)
board.cache_hierarchy.iptw_caches.demandMisses::total           48                       # number of demand (read+write) misses (Count)
board.cache_hierarchy.iptw_caches.overallMisses::processor.switch.core.mmu.itb.walker           48                       # number of overall misses (Count)
board.cache_hierarchy.iptw_caches.overallMisses::total           48                       # number of overall misses (Count)
board.cache_hierarchy.iptw_caches.demandMissLatency::processor.switch.core.mmu.itb.walker      1581902                       # number of demand (read+write) miss ticks (Tick)
board.cache_hierarchy.iptw_caches.demandMissLatency::total      1581902                       # number of demand (read+write) miss ticks (Tick)
board.cache_hierarchy.iptw_caches.overallMissLatency::processor.switch.core.mmu.itb.walker      1581902                       # number of overall miss ticks (Tick)
board.cache_hierarchy.iptw_caches.overallMissLatency::total      1581902                       # number of overall miss ticks (Tick)
board.cache_hierarchy.iptw_caches.demandAccesses::processor.switch.core.mmu.itb.walker          384                       # number of demand (read+write) accesses (Count)
board.cache_hierarchy.iptw_caches.demandAccesses::total          384                       # number of demand (read+write) accesses (Count)
board.cache_hierarchy.iptw_caches.overallAccesses::processor.switch.core.mmu.itb.walker          384                       # number of overall (read+write) accesses (Count)
board.cache_hierarchy.iptw_caches.overallAccesses::total          384                       # number of overall (read+write) accesses (Count)
board.cache_hierarchy.iptw_caches.demandMissRate::processor.switch.core.mmu.itb.walker     0.125000                       # miss rate for demand accesses (Ratio)
board.cache_hierarchy.iptw_caches.demandMissRate::total     0.125000                       # miss rate for demand accesses (Ratio)
board.cache_hierarchy.iptw_caches.overallMissRate::processor.switch.core.mmu.itb.walker     0.125000                       # miss rate for overall accesses (Ratio)
board.cache_hierarchy.iptw_caches.overallMissRate::total     0.125000                       # miss rate for overall accesses (Ratio)
board.cache_hierarchy.iptw_caches.demandAvgMissLatency::processor.switch.core.mmu.itb.walker 32956.291667                       # average overall miss latency in ticks ((Tick/Count))
board.cache_hierarchy.iptw_caches.demandAvgMissLatency::total 32956.291667                       # average overall miss latency in ticks ((Tick/Count))
board.cache_hierarchy.iptw_caches.overallAvgMissLatency::processor.switch.core.mmu.itb.walker 32956.291667                       # average overall miss latency ((Tick/Count))
board.cache_hierarchy.iptw_caches.overallAvgMissLatency::total 32956.291667                       # average overall miss latency ((Tick/Count))
board.cache_hierarchy.iptw_caches.blockedCycles::no_mshrs            0                       # number of cycles access was blocked (Cycle)
board.cache_hierarchy.iptw_caches.blockedCycles::no_targets            0                       # number of cycles access was blocked (Cycle)
board.cache_hierarchy.iptw_caches.blockedCauses::no_mshrs            0                       # number of times access was blocked (Count)
board.cache_hierarchy.iptw_caches.blockedCauses::no_targets            0                       # number of times access was blocked (Count)
board.cache_hierarchy.iptw_caches.avgBlocked::no_mshrs          nan                       # average number of cycles each access was blocked ((Cycle/Count))
board.cache_hierarchy.iptw_caches.avgBlocked::no_targets          nan                       # average number of cycles each access was blocked ((Cycle/Count))
board.cache_hierarchy.iptw_caches.demandMshrMisses::processor.switch.core.mmu.itb.walker           48                       # number of demand (read+write) MSHR misses (Count)
board.cache_hierarchy.iptw_caches.demandMshrMisses::total           48                       # number of demand (read+write) MSHR misses (Count)
board.cache_hierarchy.iptw_caches.overallMshrMisses::processor.switch.core.mmu.itb.walker           48                       # number of overall MSHR misses (Count)
board.cache_hierarchy.iptw_caches.overallMshrMisses::total           48                       # number of overall MSHR misses (Count)
board.cache_hierarchy.iptw_caches.demandMshrMissLatency::processor.switch.core.mmu.itb.walker      1566878                       # number of demand (read+write) MSHR miss ticks (Tick)
board.cache_hierarchy.iptw_caches.demandMshrMissLatency::total      1566878                       # number of demand (read+write) MSHR miss ticks (Tick)
board.cache_hierarchy.iptw_caches.overallMshrMissLatency::processor.switch.core.mmu.itb.walker      1566878                       # number of overall MSHR miss ticks (Tick)
board.cache_hierarchy.iptw_caches.overallMshrMissLatency::total      1566878                       # number of overall MSHR miss ticks (Tick)
board.cache_hierarchy.iptw_caches.demandMshrMissRate::processor.switch.core.mmu.itb.walker     0.125000                       # mshr miss ratio for demand accesses (Ratio)
board.cache_hierarchy.iptw_caches.demandMshrMissRate::total     0.125000                       # mshr miss ratio for demand accesses (Ratio)
board.cache_hierarchy.iptw_caches.overallMshrMissRate::processor.switch.core.mmu.itb.walker     0.125000                       # mshr miss ratio for overall accesses (Ratio)
board.cache_hierarchy.iptw_caches.overallMshrMissRate::total     0.125000                       # mshr miss ratio for overall accesses (Ratio)
board.cache_hierarchy.iptw_caches.demandAvgMshrMissLatency::processor.switch.core.mmu.itb.walker 32643.291667                       # average overall mshr miss latency ((Tick/Count))
board.cache_hierarchy.iptw_caches.demandAvgMshrMissLatency::total 32643.291667                       # average overall mshr miss latency ((Tick/Count))
board.cache_hierarchy.iptw_caches.overallAvgMshrMissLatency::processor.switch.core.mmu.itb.walker 32643.291667                       # average overall mshr miss latency ((Tick/Count))
board.cache_hierarchy.iptw_caches.overallAvgMshrMissLatency::total 32643.291667                       # average overall mshr miss latency ((Tick/Count))
board.cache_hierarchy.iptw_caches.replacements            3                       # number of replacements (Count)
board.cache_hierarchy.iptw_caches.ReadReq.hits::processor.switch.core.mmu.itb.walker          336                       # number of ReadReq hits (Count)
board.cache_hierarchy.iptw_caches.ReadReq.hits::total          336                       # number of ReadReq hits (Count)
board.cache_hierarchy.iptw_caches.ReadReq.misses::processor.switch.core.mmu.itb.walker           48                       # number of ReadReq misses (Count)
board.cache_hierarchy.iptw_caches.ReadReq.misses::total           48                       # number of ReadReq misses (Count)
board.cache_hierarchy.iptw_caches.ReadReq.missLatency::processor.switch.core.mmu.itb.walker      1581902                       # number of ReadReq miss ticks (Tick)
board.cache_hierarchy.iptw_caches.ReadReq.missLatency::total      1581902                       # number of ReadReq miss ticks (Tick)
board.cache_hierarchy.iptw_caches.ReadReq.accesses::processor.switch.core.mmu.itb.walker          384                       # number of ReadReq accesses(hits+misses) (Count)
board.cache_hierarchy.iptw_caches.ReadReq.accesses::total          384                       # number of ReadReq accesses(hits+misses) (Count)
board.cache_hierarchy.iptw_caches.ReadReq.missRate::processor.switch.core.mmu.itb.walker     0.125000                       # miss rate for ReadReq accesses (Ratio)
board.cache_hierarchy.iptw_caches.ReadReq.missRate::total     0.125000                       # miss rate for ReadReq accesses (Ratio)
board.cache_hierarchy.iptw_caches.ReadReq.avgMissLatency::processor.switch.core.mmu.itb.walker 32956.291667                       # average ReadReq miss latency ((Tick/Count))
board.cache_hierarchy.iptw_caches.ReadReq.avgMissLatency::total 32956.291667                       # average ReadReq miss latency ((Tick/Count))
board.cache_hierarchy.iptw_caches.ReadReq.mshrMisses::processor.switch.core.mmu.itb.walker           48                       # number of ReadReq MSHR misses (Count)
board.cache_hierarchy.iptw_caches.ReadReq.mshrMisses::total           48                       # number of ReadReq MSHR misses (Count)
board.cache_hierarchy.iptw_caches.ReadReq.mshrMissLatency::processor.switch.core.mmu.itb.walker      1566878                       # number of ReadReq MSHR miss ticks (Tick)
board.cache_hierarchy.iptw_caches.ReadReq.mshrMissLatency::total      1566878                       # number of ReadReq MSHR miss ticks (Tick)
board.cache_hierarchy.iptw_caches.ReadReq.mshrMissRate::processor.switch.core.mmu.itb.walker     0.125000                       # mshr miss rate for ReadReq accesses (Ratio)
board.cache_hierarchy.iptw_caches.ReadReq.mshrMissRate::total     0.125000                       # mshr miss rate for ReadReq accesses (Ratio)
board.cache_hierarchy.iptw_caches.ReadReq.avgMshrMissLatency::processor.switch.core.mmu.itb.walker 32643.291667                       # average ReadReq mshr miss latency ((Tick/Count))
board.cache_hierarchy.iptw_caches.ReadReq.avgMshrMissLatency::total 32643.291667                       # average ReadReq mshr miss latency ((Tick/Count))
board.cache_hierarchy.iptw_caches.power_state.pwrStateResidencyTicks::UNDEFINED 103494075782208                       # Cumulative time (in ticks) in various power states (Tick)
board.cache_hierarchy.iptw_caches.tags.tagsInUse    14.087398                       # Average ticks per tags in use ((Tick/Count))
board.cache_hierarchy.iptw_caches.tags.totalRefs           40                       # Total number of references to valid blocks. (Count)
board.cache_hierarchy.iptw_caches.tags.sampledRefs            5                       # Sample count of references to valid blocks. (Count)
board.cache_hierarchy.iptw_caches.tags.avgRefs            8                       # Average number of references to valid blocks. ((Count/Count))
board.cache_hierarchy.iptw_caches.tags.warmupTick 103240232799367                       # The tick when the warmup percentage was hit. (Tick)
board.cache_hierarchy.iptw_caches.tags.occupancies::processor.switch.core.mmu.itb.walker    14.087398                       # Average occupied blocks per tick, per requestor ((Count/Tick))
board.cache_hierarchy.iptw_caches.tags.avgOccs::processor.switch.core.mmu.itb.walker     0.110058                       # Average percentage of cache occupancy ((Ratio/Tick))
board.cache_hierarchy.iptw_caches.tags.avgOccs::total     0.110058                       # Average percentage of cache occupancy ((Ratio/Tick))
board.cache_hierarchy.iptw_caches.tags.occupanciesTaskId::1024           43                       # Occupied blocks per task id (Count)
board.cache_hierarchy.iptw_caches.tags.ageTaskId_1024::2           13                       # Occupied blocks per task id, per block age (Count)
board.cache_hierarchy.iptw_caches.tags.ageTaskId_1024::3           18                       # Occupied blocks per task id, per block age (Count)
board.cache_hierarchy.iptw_caches.tags.ageTaskId_1024::4           12                       # Occupied blocks per task id, per block age (Count)
board.cache_hierarchy.iptw_caches.tags.ratioOccsTaskId::1024     0.335938                       # Ratio of occupied blocks and all blocks, per task id (Ratio)
board.cache_hierarchy.iptw_caches.tags.tagAccesses         1584                       # Number of tag accesses (Count)
board.cache_hierarchy.iptw_caches.tags.dataAccesses         1584                       # Number of data accesses (Count)
board.cache_hierarchy.iptw_caches.tags.power_state.pwrStateResidencyTicks::UNDEFINED 103494075782208                       # Cumulative time (in ticks) in various power states (Tick)
board.cache_hierarchy.l1dcaches.demandHits::processor.switch.core.data    690298237                       # number of demand (read+write) hits (Count)
board.cache_hierarchy.l1dcaches.demandHits::total    690298237                       # number of demand (read+write) hits (Count)
board.cache_hierarchy.l1dcaches.overallHits::processor.switch.core.data    690298254                       # number of overall hits (Count)
board.cache_hierarchy.l1dcaches.overallHits::total    690298254                       # number of overall hits (Count)
board.cache_hierarchy.l1dcaches.demandMisses::processor.switch.core.data      1557309                       # number of demand (read+write) misses (Count)
board.cache_hierarchy.l1dcaches.demandMisses::total      1557309                       # number of demand (read+write) misses (Count)
board.cache_hierarchy.l1dcaches.overallMisses::processor.switch.core.data      1557408                       # number of overall misses (Count)
board.cache_hierarchy.l1dcaches.overallMisses::total      1557408                       # number of overall misses (Count)
board.cache_hierarchy.l1dcaches.demandMissLatency::processor.switch.core.data  28270070169                       # number of demand (read+write) miss ticks (Tick)
board.cache_hierarchy.l1dcaches.demandMissLatency::total  28270070169                       # number of demand (read+write) miss ticks (Tick)
board.cache_hierarchy.l1dcaches.overallMissLatency::processor.switch.core.data  28270070169                       # number of overall miss ticks (Tick)
board.cache_hierarchy.l1dcaches.overallMissLatency::total  28270070169                       # number of overall miss ticks (Tick)
board.cache_hierarchy.l1dcaches.demandAccesses::processor.switch.core.data    691855546                       # number of demand (read+write) accesses (Count)
board.cache_hierarchy.l1dcaches.demandAccesses::total    691855546                       # number of demand (read+write) accesses (Count)
board.cache_hierarchy.l1dcaches.overallAccesses::processor.switch.core.data    691855662                       # number of overall (read+write) accesses (Count)
board.cache_hierarchy.l1dcaches.overallAccesses::total    691855662                       # number of overall (read+write) accesses (Count)
board.cache_hierarchy.l1dcaches.demandMissRate::processor.switch.core.data     0.002251                       # miss rate for demand accesses (Ratio)
board.cache_hierarchy.l1dcaches.demandMissRate::total     0.002251                       # miss rate for demand accesses (Ratio)
board.cache_hierarchy.l1dcaches.overallMissRate::processor.switch.core.data     0.002251                       # miss rate for overall accesses (Ratio)
board.cache_hierarchy.l1dcaches.overallMissRate::total     0.002251                       # miss rate for overall accesses (Ratio)
board.cache_hierarchy.l1dcaches.demandAvgMissLatency::processor.switch.core.data 18153.154043                       # average overall miss latency in ticks ((Tick/Count))
board.cache_hierarchy.l1dcaches.demandAvgMissLatency::total 18153.154043                       # average overall miss latency in ticks ((Tick/Count))
board.cache_hierarchy.l1dcaches.overallAvgMissLatency::processor.switch.core.data 18152.000098                       # average overall miss latency ((Tick/Count))
board.cache_hierarchy.l1dcaches.overallAvgMissLatency::total 18152.000098                       # average overall miss latency ((Tick/Count))
board.cache_hierarchy.l1dcaches.blockedCycles::no_mshrs            0                       # number of cycles access was blocked (Cycle)
board.cache_hierarchy.l1dcaches.blockedCycles::no_targets          706                       # number of cycles access was blocked (Cycle)
board.cache_hierarchy.l1dcaches.blockedCauses::no_mshrs            0                       # number of times access was blocked (Count)
board.cache_hierarchy.l1dcaches.blockedCauses::no_targets            8                       # number of times access was blocked (Count)
board.cache_hierarchy.l1dcaches.avgBlocked::no_mshrs          nan                       # average number of cycles each access was blocked ((Cycle/Count))
board.cache_hierarchy.l1dcaches.avgBlocked::no_targets    88.250000                       # average number of cycles each access was blocked ((Cycle/Count))
board.cache_hierarchy.l1dcaches.writebacks::writebacks       442075                       # number of writebacks (Count)
board.cache_hierarchy.l1dcaches.writebacks::total       442075                       # number of writebacks (Count)
board.cache_hierarchy.l1dcaches.demandMshrHits::processor.switch.core.data        32625                       # number of demand (read+write) MSHR hits (Count)
board.cache_hierarchy.l1dcaches.demandMshrHits::total        32625                       # number of demand (read+write) MSHR hits (Count)
board.cache_hierarchy.l1dcaches.overallMshrHits::processor.switch.core.data        32625                       # number of overall MSHR hits (Count)
board.cache_hierarchy.l1dcaches.overallMshrHits::total        32625                       # number of overall MSHR hits (Count)
board.cache_hierarchy.l1dcaches.demandMshrMisses::processor.switch.core.data      1524684                       # number of demand (read+write) MSHR misses (Count)
board.cache_hierarchy.l1dcaches.demandMshrMisses::total      1524684                       # number of demand (read+write) MSHR misses (Count)
board.cache_hierarchy.l1dcaches.overallMshrMisses::cache_hierarchy.l1dcaches.prefetcher      1427503                       # number of overall MSHR misses (Count)
board.cache_hierarchy.l1dcaches.overallMshrMisses::processor.switch.core.data      1524783                       # number of overall MSHR misses (Count)
board.cache_hierarchy.l1dcaches.overallMshrMisses::total      2952286                       # number of overall MSHR misses (Count)
board.cache_hierarchy.l1dcaches.overallMshrUncacheable::processor.switch.core.data         2812                       # number of overall MSHR uncacheable misses (Count)
board.cache_hierarchy.l1dcaches.overallMshrUncacheable::total         2812                       # number of overall MSHR uncacheable misses (Count)
board.cache_hierarchy.l1dcaches.demandMshrMissLatency::processor.switch.core.data  27204416284                       # number of demand (read+write) MSHR miss ticks (Tick)
board.cache_hierarchy.l1dcaches.demandMshrMissLatency::total  27204416284                       # number of demand (read+write) MSHR miss ticks (Tick)
board.cache_hierarchy.l1dcaches.overallMshrMissLatency::cache_hierarchy.l1dcaches.prefetcher  53440563553                       # number of overall MSHR miss ticks (Tick)
board.cache_hierarchy.l1dcaches.overallMshrMissLatency::processor.switch.core.data  27205561551                       # number of overall MSHR miss ticks (Tick)
board.cache_hierarchy.l1dcaches.overallMshrMissLatency::total  80646125104                       # number of overall MSHR miss ticks (Tick)
board.cache_hierarchy.l1dcaches.overallMshrUncacheableLatency::processor.switch.core.data    399042448                       # number of overall MSHR uncacheable ticks (Tick)
board.cache_hierarchy.l1dcaches.overallMshrUncacheableLatency::total    399042448                       # number of overall MSHR uncacheable ticks (Tick)
board.cache_hierarchy.l1dcaches.demandMshrMissRate::processor.switch.core.data     0.002204                       # mshr miss ratio for demand accesses (Ratio)
board.cache_hierarchy.l1dcaches.demandMshrMissRate::total     0.002204                       # mshr miss ratio for demand accesses (Ratio)
board.cache_hierarchy.l1dcaches.overallMshrMissRate::cache_hierarchy.l1dcaches.prefetcher          inf                       # mshr miss ratio for overall accesses (Ratio)
board.cache_hierarchy.l1dcaches.overallMshrMissRate::processor.switch.core.data     0.002204                       # mshr miss ratio for overall accesses (Ratio)
board.cache_hierarchy.l1dcaches.overallMshrMissRate::total     0.004267                       # mshr miss ratio for overall accesses (Ratio)
board.cache_hierarchy.l1dcaches.demandAvgMshrMissLatency::processor.switch.core.data 17842.658731                       # average overall mshr miss latency ((Tick/Count))
board.cache_hierarchy.l1dcaches.demandAvgMshrMissLatency::total 17842.658731                       # average overall mshr miss latency ((Tick/Count))
board.cache_hierarchy.l1dcaches.overallAvgMshrMissLatency::cache_hierarchy.l1dcaches.prefetcher 37436.393166                       # average overall mshr miss latency ((Tick/Count))
board.cache_hierarchy.l1dcaches.overallAvgMshrMissLatency::processor.switch.core.data 17842.251357                       # average overall mshr miss latency ((Tick/Count))
board.cache_hierarchy.l1dcaches.overallAvgMshrMissLatency::total 27316.501553                       # average overall mshr miss latency ((Tick/Count))
board.cache_hierarchy.l1dcaches.overallAvgMshrUncacheableLatency::processor.switch.core.data 141906.987198                       # average overall mshr uncacheable latency ((Tick/Count))
board.cache_hierarchy.l1dcaches.overallAvgMshrUncacheableLatency::total 141906.987198                       # average overall mshr uncacheable latency ((Tick/Count))
board.cache_hierarchy.l1dcaches.replacements      2951966                       # number of replacements (Count)
board.cache_hierarchy.l1dcaches.HardPFReq.mshrMisses::cache_hierarchy.l1dcaches.prefetcher      1427503                       # number of HardPFReq MSHR misses (Count)
board.cache_hierarchy.l1dcaches.HardPFReq.mshrMisses::total      1427503                       # number of HardPFReq MSHR misses (Count)
board.cache_hierarchy.l1dcaches.HardPFReq.mshrMissLatency::cache_hierarchy.l1dcaches.prefetcher  53440563553                       # number of HardPFReq MSHR miss ticks (Tick)
board.cache_hierarchy.l1dcaches.HardPFReq.mshrMissLatency::total  53440563553                       # number of HardPFReq MSHR miss ticks (Tick)
board.cache_hierarchy.l1dcaches.HardPFReq.mshrMissRate::cache_hierarchy.l1dcaches.prefetcher          inf                       # mshr miss rate for HardPFReq accesses (Ratio)
board.cache_hierarchy.l1dcaches.HardPFReq.mshrMissRate::total          inf                       # mshr miss rate for HardPFReq accesses (Ratio)
board.cache_hierarchy.l1dcaches.HardPFReq.avgMshrMissLatency::cache_hierarchy.l1dcaches.prefetcher 37436.393166                       # average HardPFReq mshr miss latency ((Tick/Count))
board.cache_hierarchy.l1dcaches.HardPFReq.avgMshrMissLatency::total 37436.393166                       # average HardPFReq mshr miss latency ((Tick/Count))
board.cache_hierarchy.l1dcaches.LockedRMWReadReq.hits::processor.switch.core.data         4276                       # number of LockedRMWReadReq hits (Count)
board.cache_hierarchy.l1dcaches.LockedRMWReadReq.hits::total         4276                       # number of LockedRMWReadReq hits (Count)
board.cache_hierarchy.l1dcaches.LockedRMWReadReq.misses::processor.switch.core.data            4                       # number of LockedRMWReadReq misses (Count)
board.cache_hierarchy.l1dcaches.LockedRMWReadReq.misses::total            4                       # number of LockedRMWReadReq misses (Count)
board.cache_hierarchy.l1dcaches.LockedRMWReadReq.missLatency::processor.switch.core.data       151492                       # number of LockedRMWReadReq miss ticks (Tick)
board.cache_hierarchy.l1dcaches.LockedRMWReadReq.missLatency::total       151492                       # number of LockedRMWReadReq miss ticks (Tick)
board.cache_hierarchy.l1dcaches.LockedRMWReadReq.accesses::processor.switch.core.data         4280                       # number of LockedRMWReadReq accesses(hits+misses) (Count)
board.cache_hierarchy.l1dcaches.LockedRMWReadReq.accesses::total         4280                       # number of LockedRMWReadReq accesses(hits+misses) (Count)
board.cache_hierarchy.l1dcaches.LockedRMWReadReq.missRate::processor.switch.core.data     0.000935                       # miss rate for LockedRMWReadReq accesses (Ratio)
board.cache_hierarchy.l1dcaches.LockedRMWReadReq.missRate::total     0.000935                       # miss rate for LockedRMWReadReq accesses (Ratio)
board.cache_hierarchy.l1dcaches.LockedRMWReadReq.avgMissLatency::processor.switch.core.data        37873                       # average LockedRMWReadReq miss latency ((Tick/Count))
board.cache_hierarchy.l1dcaches.LockedRMWReadReq.avgMissLatency::total        37873                       # average LockedRMWReadReq miss latency ((Tick/Count))
board.cache_hierarchy.l1dcaches.LockedRMWReadReq.mshrMisses::processor.switch.core.data            4                       # number of LockedRMWReadReq MSHR misses (Count)
board.cache_hierarchy.l1dcaches.LockedRMWReadReq.mshrMisses::total            4                       # number of LockedRMWReadReq MSHR misses (Count)
board.cache_hierarchy.l1dcaches.LockedRMWReadReq.mshrMissLatency::processor.switch.core.data     10323366                       # number of LockedRMWReadReq MSHR miss ticks (Tick)
board.cache_hierarchy.l1dcaches.LockedRMWReadReq.mshrMissLatency::total     10323366                       # number of LockedRMWReadReq MSHR miss ticks (Tick)
board.cache_hierarchy.l1dcaches.LockedRMWReadReq.mshrMissRate::processor.switch.core.data     0.000935                       # mshr miss rate for LockedRMWReadReq accesses (Ratio)
board.cache_hierarchy.l1dcaches.LockedRMWReadReq.mshrMissRate::total     0.000935                       # mshr miss rate for LockedRMWReadReq accesses (Ratio)
board.cache_hierarchy.l1dcaches.LockedRMWReadReq.avgMshrMissLatency::processor.switch.core.data 2580841.500000                       # average LockedRMWReadReq mshr miss latency ((Tick/Count))
board.cache_hierarchy.l1dcaches.LockedRMWReadReq.avgMshrMissLatency::total 2580841.500000                       # average LockedRMWReadReq mshr miss latency ((Tick/Count))
board.cache_hierarchy.l1dcaches.LockedRMWWriteReq.hits::processor.switch.core.data         4280                       # number of LockedRMWWriteReq hits (Count)
board.cache_hierarchy.l1dcaches.LockedRMWWriteReq.hits::total         4280                       # number of LockedRMWWriteReq hits (Count)
board.cache_hierarchy.l1dcaches.LockedRMWWriteReq.accesses::processor.switch.core.data         4280                       # number of LockedRMWWriteReq accesses(hits+misses) (Count)
board.cache_hierarchy.l1dcaches.LockedRMWWriteReq.accesses::total         4280                       # number of LockedRMWWriteReq accesses(hits+misses) (Count)
board.cache_hierarchy.l1dcaches.ReadReq.hits::processor.switch.core.data    558511818                       # number of ReadReq hits (Count)
board.cache_hierarchy.l1dcaches.ReadReq.hits::total    558511818                       # number of ReadReq hits (Count)
board.cache_hierarchy.l1dcaches.ReadReq.misses::processor.switch.core.data      1334724                       # number of ReadReq misses (Count)
board.cache_hierarchy.l1dcaches.ReadReq.misses::total      1334724                       # number of ReadReq misses (Count)
board.cache_hierarchy.l1dcaches.ReadReq.missLatency::processor.switch.core.data  24528714187                       # number of ReadReq miss ticks (Tick)
board.cache_hierarchy.l1dcaches.ReadReq.missLatency::total  24528714187                       # number of ReadReq miss ticks (Tick)
board.cache_hierarchy.l1dcaches.ReadReq.accesses::processor.switch.core.data    559846542                       # number of ReadReq accesses(hits+misses) (Count)
board.cache_hierarchy.l1dcaches.ReadReq.accesses::total    559846542                       # number of ReadReq accesses(hits+misses) (Count)
board.cache_hierarchy.l1dcaches.ReadReq.missRate::processor.switch.core.data     0.002384                       # miss rate for ReadReq accesses (Ratio)
board.cache_hierarchy.l1dcaches.ReadReq.missRate::total     0.002384                       # miss rate for ReadReq accesses (Ratio)
board.cache_hierarchy.l1dcaches.ReadReq.avgMissLatency::processor.switch.core.data 18377.368045                       # average ReadReq miss latency ((Tick/Count))
board.cache_hierarchy.l1dcaches.ReadReq.avgMissLatency::total 18377.368045                       # average ReadReq miss latency ((Tick/Count))
board.cache_hierarchy.l1dcaches.ReadReq.mshrHits::processor.switch.core.data        31584                       # number of ReadReq MSHR hits (Count)
board.cache_hierarchy.l1dcaches.ReadReq.mshrHits::total        31584                       # number of ReadReq MSHR hits (Count)
board.cache_hierarchy.l1dcaches.ReadReq.mshrMisses::processor.switch.core.data      1303140                       # number of ReadReq MSHR misses (Count)
board.cache_hierarchy.l1dcaches.ReadReq.mshrMisses::total      1303140                       # number of ReadReq MSHR misses (Count)
board.cache_hierarchy.l1dcaches.ReadReq.mshrUncacheable::processor.switch.core.data         1904                       # number of ReadReq MSHR uncacheable (Count)
board.cache_hierarchy.l1dcaches.ReadReq.mshrUncacheable::total         1904                       # number of ReadReq MSHR uncacheable (Count)
board.cache_hierarchy.l1dcaches.ReadReq.mshrMissLatency::processor.switch.core.data  23550089639                       # number of ReadReq MSHR miss ticks (Tick)
board.cache_hierarchy.l1dcaches.ReadReq.mshrMissLatency::total  23550089639                       # number of ReadReq MSHR miss ticks (Tick)
board.cache_hierarchy.l1dcaches.ReadReq.mshrUncacheableLatency::processor.switch.core.data    399042448                       # number of ReadReq MSHR uncacheable ticks (Tick)
board.cache_hierarchy.l1dcaches.ReadReq.mshrUncacheableLatency::total    399042448                       # number of ReadReq MSHR uncacheable ticks (Tick)
board.cache_hierarchy.l1dcaches.ReadReq.mshrMissRate::processor.switch.core.data     0.002328                       # mshr miss rate for ReadReq accesses (Ratio)
board.cache_hierarchy.l1dcaches.ReadReq.mshrMissRate::total     0.002328                       # mshr miss rate for ReadReq accesses (Ratio)
board.cache_hierarchy.l1dcaches.ReadReq.avgMshrMissLatency::processor.switch.core.data 18071.803213                       # average ReadReq mshr miss latency ((Tick/Count))
board.cache_hierarchy.l1dcaches.ReadReq.avgMshrMissLatency::total 18071.803213                       # average ReadReq mshr miss latency ((Tick/Count))
board.cache_hierarchy.l1dcaches.ReadReq.avgMshrUncacheableLatency::processor.switch.core.data 209581.117647                       # average ReadReq mshr uncacheable latency ((Tick/Count))
board.cache_hierarchy.l1dcaches.ReadReq.avgMshrUncacheableLatency::total 209581.117647                       # average ReadReq mshr uncacheable latency ((Tick/Count))
board.cache_hierarchy.l1dcaches.SoftPFReq.hits::processor.switch.core.data           17                       # number of SoftPFReq hits (Count)
board.cache_hierarchy.l1dcaches.SoftPFReq.hits::total           17                       # number of SoftPFReq hits (Count)
board.cache_hierarchy.l1dcaches.SoftPFReq.misses::processor.switch.core.data           99                       # number of SoftPFReq misses (Count)
board.cache_hierarchy.l1dcaches.SoftPFReq.misses::total           99                       # number of SoftPFReq misses (Count)
board.cache_hierarchy.l1dcaches.SoftPFReq.accesses::processor.switch.core.data          116                       # number of SoftPFReq accesses(hits+misses) (Count)
board.cache_hierarchy.l1dcaches.SoftPFReq.accesses::total          116                       # number of SoftPFReq accesses(hits+misses) (Count)
board.cache_hierarchy.l1dcaches.SoftPFReq.missRate::processor.switch.core.data     0.853448                       # miss rate for SoftPFReq accesses (Ratio)
board.cache_hierarchy.l1dcaches.SoftPFReq.missRate::total     0.853448                       # miss rate for SoftPFReq accesses (Ratio)
board.cache_hierarchy.l1dcaches.SoftPFReq.mshrMisses::processor.switch.core.data           99                       # number of SoftPFReq MSHR misses (Count)
board.cache_hierarchy.l1dcaches.SoftPFReq.mshrMisses::total           99                       # number of SoftPFReq MSHR misses (Count)
board.cache_hierarchy.l1dcaches.SoftPFReq.mshrMissLatency::processor.switch.core.data      1145267                       # number of SoftPFReq MSHR miss ticks (Tick)
board.cache_hierarchy.l1dcaches.SoftPFReq.mshrMissLatency::total      1145267                       # number of SoftPFReq MSHR miss ticks (Tick)
board.cache_hierarchy.l1dcaches.SoftPFReq.mshrMissRate::processor.switch.core.data     0.853448                       # mshr miss rate for SoftPFReq accesses (Ratio)
board.cache_hierarchy.l1dcaches.SoftPFReq.mshrMissRate::total     0.853448                       # mshr miss rate for SoftPFReq accesses (Ratio)
board.cache_hierarchy.l1dcaches.SoftPFReq.avgMshrMissLatency::processor.switch.core.data 11568.353535                       # average SoftPFReq mshr miss latency ((Tick/Count))
board.cache_hierarchy.l1dcaches.SoftPFReq.avgMshrMissLatency::total 11568.353535                       # average SoftPFReq mshr miss latency ((Tick/Count))
board.cache_hierarchy.l1dcaches.WriteReq.hits::processor.switch.core.data    131786419                       # number of WriteReq hits (Count)
board.cache_hierarchy.l1dcaches.WriteReq.hits::total    131786419                       # number of WriteReq hits (Count)
board.cache_hierarchy.l1dcaches.WriteReq.misses::processor.switch.core.data       222585                       # number of WriteReq misses (Count)
board.cache_hierarchy.l1dcaches.WriteReq.misses::total       222585                       # number of WriteReq misses (Count)
board.cache_hierarchy.l1dcaches.WriteReq.missLatency::processor.switch.core.data   3741355982                       # number of WriteReq miss ticks (Tick)
board.cache_hierarchy.l1dcaches.WriteReq.missLatency::total   3741355982                       # number of WriteReq miss ticks (Tick)
board.cache_hierarchy.l1dcaches.WriteReq.accesses::processor.switch.core.data    132009004                       # number of WriteReq accesses(hits+misses) (Count)
board.cache_hierarchy.l1dcaches.WriteReq.accesses::total    132009004                       # number of WriteReq accesses(hits+misses) (Count)
board.cache_hierarchy.l1dcaches.WriteReq.missRate::processor.switch.core.data     0.001686                       # miss rate for WriteReq accesses (Ratio)
board.cache_hierarchy.l1dcaches.WriteReq.missRate::total     0.001686                       # miss rate for WriteReq accesses (Ratio)
board.cache_hierarchy.l1dcaches.WriteReq.avgMissLatency::processor.switch.core.data 16808.661779                       # average WriteReq miss latency ((Tick/Count))
board.cache_hierarchy.l1dcaches.WriteReq.avgMissLatency::total 16808.661779                       # average WriteReq miss latency ((Tick/Count))
board.cache_hierarchy.l1dcaches.WriteReq.mshrHits::processor.switch.core.data         1041                       # number of WriteReq MSHR hits (Count)
board.cache_hierarchy.l1dcaches.WriteReq.mshrHits::total         1041                       # number of WriteReq MSHR hits (Count)
board.cache_hierarchy.l1dcaches.WriteReq.mshrMisses::processor.switch.core.data       221544                       # number of WriteReq MSHR misses (Count)
board.cache_hierarchy.l1dcaches.WriteReq.mshrMisses::total       221544                       # number of WriteReq MSHR misses (Count)
board.cache_hierarchy.l1dcaches.WriteReq.mshrUncacheable::processor.switch.core.data          908                       # number of WriteReq MSHR uncacheable (Count)
board.cache_hierarchy.l1dcaches.WriteReq.mshrUncacheable::total          908                       # number of WriteReq MSHR uncacheable (Count)
board.cache_hierarchy.l1dcaches.WriteReq.mshrMissLatency::processor.switch.core.data   3654326645                       # number of WriteReq MSHR miss ticks (Tick)
board.cache_hierarchy.l1dcaches.WriteReq.mshrMissLatency::total   3654326645                       # number of WriteReq MSHR miss ticks (Tick)
board.cache_hierarchy.l1dcaches.WriteReq.mshrMissRate::processor.switch.core.data     0.001678                       # mshr miss rate for WriteReq accesses (Ratio)
board.cache_hierarchy.l1dcaches.WriteReq.mshrMissRate::total     0.001678                       # mshr miss rate for WriteReq accesses (Ratio)
board.cache_hierarchy.l1dcaches.WriteReq.avgMshrMissLatency::processor.switch.core.data 16494.812069                       # average WriteReq mshr miss latency ((Tick/Count))
board.cache_hierarchy.l1dcaches.WriteReq.avgMshrMissLatency::total 16494.812069                       # average WriteReq mshr miss latency ((Tick/Count))
board.cache_hierarchy.l1dcaches.power_state.pwrStateResidencyTicks::UNDEFINED 103494075782208                       # Cumulative time (in ticks) in various power states (Tick)
board.cache_hierarchy.l1dcaches.prefetcher.demandMshrMisses      1524684                       # demands not covered by prefetchs (Count)
board.cache_hierarchy.l1dcaches.prefetcher.pfIssued      1433538                       # number of hwpf issued (Count)
board.cache_hierarchy.l1dcaches.prefetcher.pfUnused         2597                       # number of HardPF blocks evicted w/o reference (Count)
board.cache_hierarchy.l1dcaches.prefetcher.pfUseful      1423977                       # number of useful prefetch (Count)
board.cache_hierarchy.l1dcaches.prefetcher.pfUsefulButMiss            0                       # number of hit on prefetch but cache block is not in an usable state (Count)
board.cache_hierarchy.l1dcaches.prefetcher.accuracy     0.993330                       # accuracy of the prefetcher (Count)
board.cache_hierarchy.l1dcaches.prefetcher.coverage     0.482923                       # coverage brought by this prefetcher (Count)
board.cache_hierarchy.l1dcaches.prefetcher.pfHitInCache         3159                       # number of prefetches hitting in cache (Count)
board.cache_hierarchy.l1dcaches.prefetcher.pfHitInMSHR         2876                       # number of prefetches hitting in a MSHR (Count)
board.cache_hierarchy.l1dcaches.prefetcher.pfHitInWB            0                       # number of prefetches hit in the Write Buffer (Count)
board.cache_hierarchy.l1dcaches.prefetcher.pfLate         6035                       # number of late prefetches (hitting in cache, MSHR or WB) (Count)
board.cache_hierarchy.l1dcaches.prefetcher.pfIdentified      1435190                       # number of prefetch candidates identified (Count)
board.cache_hierarchy.l1dcaches.prefetcher.pfBufferHit         1355                       # number of redundant prefetches already in prefetch queue (Count)
board.cache_hierarchy.l1dcaches.prefetcher.pfInCache            0                       # number of redundant prefetches already in cache/mshr dropped (Count)
board.cache_hierarchy.l1dcaches.prefetcher.pfRemovedDemand           22                       # number of prefetches dropped due to a demand for the same address (Count)
board.cache_hierarchy.l1dcaches.prefetcher.pfRemovedFull            0                       # number of prefetches dropped due to prefetch queue size (Count)
board.cache_hierarchy.l1dcaches.prefetcher.pfSpanPage        11414                       # number of prefetches that crossed the page (Count)
board.cache_hierarchy.l1dcaches.prefetcher.pfUsefulSpanPage            0                       # number of prefetches that is useful and crossed the page (Count)
board.cache_hierarchy.l1dcaches.prefetcher.power_state.pwrStateResidencyTicks::UNDEFINED 103494075782208                       # Cumulative time (in ticks) in various power states (Tick)
board.cache_hierarchy.l1dcaches.tags.tagsInUse   255.513047                       # Average ticks per tags in use ((Tick/Count))
board.cache_hierarchy.l1dcaches.tags.totalRefs    693130075                       # Total number of references to valid blocks. (Count)
board.cache_hierarchy.l1dcaches.tags.sampledRefs      2951966                       # Sample count of references to valid blocks. (Count)
board.cache_hierarchy.l1dcaches.tags.avgRefs   234.802865                       # Average number of references to valid blocks. ((Count/Count))
board.cache_hierarchy.l1dcaches.tags.warmupTick 103240232954928                       # The tick when the warmup percentage was hit. (Tick)
board.cache_hierarchy.l1dcaches.tags.occupancies::cache_hierarchy.l1dcaches.prefetcher   115.975312                       # Average occupied blocks per tick, per requestor ((Count/Tick))
board.cache_hierarchy.l1dcaches.tags.occupancies::processor.switch.core.data   139.537734                       # Average occupied blocks per tick, per requestor ((Count/Tick))
board.cache_hierarchy.l1dcaches.tags.avgOccs::cache_hierarchy.l1dcaches.prefetcher     0.453029                       # Average percentage of cache occupancy ((Ratio/Tick))
board.cache_hierarchy.l1dcaches.tags.avgOccs::processor.switch.core.data     0.545069                       # Average percentage of cache occupancy ((Ratio/Tick))
board.cache_hierarchy.l1dcaches.tags.avgOccs::total     0.998098                       # Average percentage of cache occupancy ((Ratio/Tick))
board.cache_hierarchy.l1dcaches.tags.occupanciesTaskId::1022           32                       # Occupied blocks per task id (Count)
board.cache_hierarchy.l1dcaches.tags.occupanciesTaskId::1024          224                       # Occupied blocks per task id (Count)
board.cache_hierarchy.l1dcaches.tags.ageTaskId_1022::1           29                       # Occupied blocks per task id, per block age (Count)
board.cache_hierarchy.l1dcaches.tags.ageTaskId_1022::2            3                       # Occupied blocks per task id, per block age (Count)
board.cache_hierarchy.l1dcaches.tags.ageTaskId_1024::0            8                       # Occupied blocks per task id, per block age (Count)
board.cache_hierarchy.l1dcaches.tags.ageTaskId_1024::1          200                       # Occupied blocks per task id, per block age (Count)
board.cache_hierarchy.l1dcaches.tags.ageTaskId_1024::2           14                       # Occupied blocks per task id, per block age (Count)
board.cache_hierarchy.l1dcaches.tags.ageTaskId_1024::3            2                       # Occupied blocks per task id, per block age (Count)
board.cache_hierarchy.l1dcaches.tags.ratioOccsTaskId::1022     0.125000                       # Ratio of occupied blocks and all blocks, per task id (Ratio)
board.cache_hierarchy.l1dcaches.tags.ratioOccsTaskId::1024     0.875000                       # Ratio of occupied blocks and all blocks, per task id (Ratio)
board.cache_hierarchy.l1dcaches.tags.tagAccesses   5537865998                       # Number of tag accesses (Count)
board.cache_hierarchy.l1dcaches.tags.dataAccesses   5537865998                       # Number of data accesses (Count)
board.cache_hierarchy.l1dcaches.tags.power_state.pwrStateResidencyTicks::UNDEFINED 103494075782208                       # Cumulative time (in ticks) in various power states (Tick)
board.cache_hierarchy.l1icaches.demandHits::processor.switch.core.inst    273320033                       # number of demand (read+write) hits (Count)
board.cache_hierarchy.l1icaches.demandHits::total    273320033                       # number of demand (read+write) hits (Count)
board.cache_hierarchy.l1icaches.overallHits::processor.switch.core.inst    273320033                       # number of overall hits (Count)
board.cache_hierarchy.l1icaches.overallHits::total    273320033                       # number of overall hits (Count)
board.cache_hierarchy.l1icaches.demandMisses::processor.switch.core.inst        88622                       # number of demand (read+write) misses (Count)
board.cache_hierarchy.l1icaches.demandMisses::total        88622                       # number of demand (read+write) misses (Count)
board.cache_hierarchy.l1icaches.overallMisses::processor.switch.core.inst        88622                       # number of overall misses (Count)
board.cache_hierarchy.l1icaches.overallMisses::total        88622                       # number of overall misses (Count)
board.cache_hierarchy.l1icaches.demandMissLatency::processor.switch.core.inst   2070372617                       # number of demand (read+write) miss ticks (Tick)
board.cache_hierarchy.l1icaches.demandMissLatency::total   2070372617                       # number of demand (read+write) miss ticks (Tick)
board.cache_hierarchy.l1icaches.overallMissLatency::processor.switch.core.inst   2070372617                       # number of overall miss ticks (Tick)
board.cache_hierarchy.l1icaches.overallMissLatency::total   2070372617                       # number of overall miss ticks (Tick)
board.cache_hierarchy.l1icaches.demandAccesses::processor.switch.core.inst    273408655                       # number of demand (read+write) accesses (Count)
board.cache_hierarchy.l1icaches.demandAccesses::total    273408655                       # number of demand (read+write) accesses (Count)
board.cache_hierarchy.l1icaches.overallAccesses::processor.switch.core.inst    273408655                       # number of overall (read+write) accesses (Count)
board.cache_hierarchy.l1icaches.overallAccesses::total    273408655                       # number of overall (read+write) accesses (Count)
board.cache_hierarchy.l1icaches.demandMissRate::processor.switch.core.inst     0.000324                       # miss rate for demand accesses (Ratio)
board.cache_hierarchy.l1icaches.demandMissRate::total     0.000324                       # miss rate for demand accesses (Ratio)
board.cache_hierarchy.l1icaches.overallMissRate::processor.switch.core.inst     0.000324                       # miss rate for overall accesses (Ratio)
board.cache_hierarchy.l1icaches.overallMissRate::total     0.000324                       # miss rate for overall accesses (Ratio)
board.cache_hierarchy.l1icaches.demandAvgMissLatency::processor.switch.core.inst 23361.835853                       # average overall miss latency in ticks ((Tick/Count))
board.cache_hierarchy.l1icaches.demandAvgMissLatency::total 23361.835853                       # average overall miss latency in ticks ((Tick/Count))
board.cache_hierarchy.l1icaches.overallAvgMissLatency::processor.switch.core.inst 23361.835853                       # average overall miss latency ((Tick/Count))
board.cache_hierarchy.l1icaches.overallAvgMissLatency::total 23361.835853                       # average overall miss latency ((Tick/Count))
board.cache_hierarchy.l1icaches.blockedCycles::no_mshrs            0                       # number of cycles access was blocked (Cycle)
board.cache_hierarchy.l1icaches.blockedCycles::no_targets            0                       # number of cycles access was blocked (Cycle)
board.cache_hierarchy.l1icaches.blockedCauses::no_mshrs            0                       # number of times access was blocked (Count)
board.cache_hierarchy.l1icaches.blockedCauses::no_targets            0                       # number of times access was blocked (Count)
board.cache_hierarchy.l1icaches.avgBlocked::no_mshrs          nan                       # average number of cycles each access was blocked ((Cycle/Count))
board.cache_hierarchy.l1icaches.avgBlocked::no_targets          nan                       # average number of cycles each access was blocked ((Cycle/Count))
board.cache_hierarchy.l1icaches.demandMshrHits::processor.switch.core.inst         9741                       # number of demand (read+write) MSHR hits (Count)
board.cache_hierarchy.l1icaches.demandMshrHits::total         9741                       # number of demand (read+write) MSHR hits (Count)
board.cache_hierarchy.l1icaches.overallMshrHits::processor.switch.core.inst         9741                       # number of overall MSHR hits (Count)
board.cache_hierarchy.l1icaches.overallMshrHits::total         9741                       # number of overall MSHR hits (Count)
board.cache_hierarchy.l1icaches.demandMshrMisses::processor.switch.core.inst        78881                       # number of demand (read+write) MSHR misses (Count)
board.cache_hierarchy.l1icaches.demandMshrMisses::total        78881                       # number of demand (read+write) MSHR misses (Count)
board.cache_hierarchy.l1icaches.overallMshrMisses::processor.switch.core.inst        78881                       # number of overall MSHR misses (Count)
board.cache_hierarchy.l1icaches.overallMshrMisses::total        78881                       # number of overall MSHR misses (Count)
board.cache_hierarchy.l1icaches.demandMshrMissLatency::processor.switch.core.inst   1800374748                       # number of demand (read+write) MSHR miss ticks (Tick)
board.cache_hierarchy.l1icaches.demandMshrMissLatency::total   1800374748                       # number of demand (read+write) MSHR miss ticks (Tick)
board.cache_hierarchy.l1icaches.overallMshrMissLatency::processor.switch.core.inst   1800374748                       # number of overall MSHR miss ticks (Tick)
board.cache_hierarchy.l1icaches.overallMshrMissLatency::total   1800374748                       # number of overall MSHR miss ticks (Tick)
board.cache_hierarchy.l1icaches.demandMshrMissRate::processor.switch.core.inst     0.000289                       # mshr miss ratio for demand accesses (Ratio)
board.cache_hierarchy.l1icaches.demandMshrMissRate::total     0.000289                       # mshr miss ratio for demand accesses (Ratio)
board.cache_hierarchy.l1icaches.overallMshrMissRate::processor.switch.core.inst     0.000289                       # mshr miss ratio for overall accesses (Ratio)
board.cache_hierarchy.l1icaches.overallMshrMissRate::total     0.000289                       # mshr miss ratio for overall accesses (Ratio)
board.cache_hierarchy.l1icaches.demandAvgMshrMissLatency::processor.switch.core.inst 22823.934129                       # average overall mshr miss latency ((Tick/Count))
board.cache_hierarchy.l1icaches.demandAvgMshrMissLatency::total 22823.934129                       # average overall mshr miss latency ((Tick/Count))
board.cache_hierarchy.l1icaches.overallAvgMshrMissLatency::processor.switch.core.inst 22823.934129                       # average overall mshr miss latency ((Tick/Count))
board.cache_hierarchy.l1icaches.overallAvgMshrMissLatency::total 22823.934129                       # average overall mshr miss latency ((Tick/Count))
[...]
board.processor.switch.core.fetch.nisnDist::2     12947525      1.60%     23.78% # Number of instructions fetched each cycle (Total) (Count)
board.processor.switch.core.fetch.nisnDist::3     70584614      8.74%     32.52% # Number of instructions fetched each cycle (Total) (Count)
board.processor.switch.core.fetch.nisnDist::4     23449471      2.90%     35.42% # Number of instructions fetched each cycle (Total) (Count)
board.processor.switch.core.fetch.nisnDist::5     41014003      5.08%     40.50% # Number of instructions fetched each cycle (Total) (Count)
board.processor.switch.core.fetch.nisnDist::6     27409851      3.39%     43.89% # Number of instructions fetched each cycle (Total) (Count)
board.processor.switch.core.fetch.nisnDist::7     54571787      6.75%     50.65% # Number of instructions fetched each cycle (Total) (Count)
board.processor.switch.core.fetch.nisnDist::8    398729781     49.35%    100.00% # Number of instructions fetched each cycle (Total) (Count)
board.processor.switch.core.fetch.nisnDist::overflows            0      0.00%    100.00% # Number of instructions fetched each cycle (Total) (Count)
board.processor.switch.core.fetch.nisnDist::min_value            0                       # Number of instructions fetched each cycle (Total) (Count)
board.processor.switch.core.fetch.nisnDist::max_value            8                       # Number of instructions fetched each cycle (Total) (Count)
board.processor.switch.core.fetch.nisnDist::total    807910395                       # Number of instructions fetched each cycle (Total) (Count)
board.processor.switch.core.fetchStats0.numInsts   2329391748                       # Number of instructions fetched (thread level) (Count)
board.processor.switch.core.fetchStats0.numOps            0                       # Number of ops (including micro ops) fetched (thread level) (Count)
board.processor.switch.core.fetchStats0.fetchRate     2.872259                       # Number of inst fetches per cycle ((Count/Cycle))
board.processor.switch.core.fetchStats0.numBranches    171985952                       # Number of branches fetched (Count)
board.processor.switch.core.fetchStats0.branchRate     0.212067                       # Number of branch fetches per cycle (Ratio)
board.processor.switch.core.fetchStats0.icacheStallCycles      4514430                       # ICache total stall cycles (Cycle)
board.processor.switch.core.fetchStats0.numFetchSuspends            0                       # Number of times Execute suspended instruction fetching (Count)
board.processor.switch.core.iew.idleCycles            0                       # Number of cycles IEW is idle (Cycle)
board.processor.switch.core.iew.squashCycles      2266933                       # Number of cycles IEW is squashing (Cycle)
board.processor.switch.core.iew.blockCycles     45814363                       # Number of cycles IEW is blocking (Cycle)
board.processor.switch.core.iew.unblockCycles       506981                       # Number of cycles IEW is unblocking (Cycle)
board.processor.switch.core.iew.dispatchedInsts   4222977487                       # Number of instructions dispatched to IQ (Count)
board.processor.switch.core.iew.dispSquashedInsts         7357                       # Number of squashed instructions skipped by dispatch (Count)
board.processor.switch.core.iew.dispLoadInsts    647022466                       # Number of dispatched load instructions (Count)
board.processor.switch.core.iew.dispStoreInsts    139537004                       # Number of dispatched store instructions (Count)
board.processor.switch.core.iew.dispNonSpecInsts        21803                       # Number of dispatched non-speculative instructions (Count)
board.processor.switch.core.iew.iqFullEvents       291090                       # Number of times the IQ has become full, causing a stall (Count)
board.processor.switch.core.iew.lsqFullEvents         8698                       # Number of times the LSQ has become full, causing a stall (Count)
board.processor.switch.core.iew.memOrderViolationEvents        19262                       # Number of memory order violations (Count)
board.processor.switch.core.iew.predictedTakenIncorrect      1150820                       # Number of branches that were predicted taken incorrectly (Count)
board.processor.switch.core.iew.predictedNotTakenIncorrect      1141015                       # Number of branches that were predicted not taken incorrectly (Count)
board.processor.switch.core.iew.branchMispredicts      2291835                       # Number of branch mispredicts detected at execute (Count)
board.processor.switch.core.iew.instsToCommit   4147501958                       # Cumulative count of insts sent to commit (Count)
board.processor.switch.core.iew.writebackCount   4145631226                       # Cumulative count of insts written-back (Count)
board.processor.switch.core.iew.producerInst   2920467237                       # Number of instructions producing a value (Count)
board.processor.switch.core.iew.consumerInst   4701981861                       # Number of instructions consuming a value (Count)
board.processor.switch.core.iew.wbRate       5.111775                       # Insts written-back per cycle ((Count/Cycle))
board.processor.switch.core.iew.wbFanout     0.621114                       # Average fanout of values written-back ((Count/Count))
board.processor.switch.core.lsq0.forwLoads     78010007                       # Number of loads that had data forwarded from stores (Count)
board.processor.switch.core.lsq0.squashedLoads     31372732                       # Number of loads squashed (Count)
board.processor.switch.core.lsq0.ignoredResponses          433                       # Number of memory responses ignored because the instruction is squashed (Count)
board.processor.switch.core.lsq0.memOrderViolation        19262                       # Number of memory ordering violations (Count)
board.processor.switch.core.lsq0.squashedStores      7523162                       # Number of stores squashed (Count)
board.processor.switch.core.lsq0.rescheduledLoads     36681023                       # Number of loads that were rescheduled (Count)
board.processor.switch.core.lsq0.blockedByCache            7                       # Number of times an access to memory failed due to the cache being blocked (Count)
board.processor.switch.core.lsq0.loadToUse::samples    615649617                       # Distribution of cycle latency between the first time a load is issued and its completion (Unspecified)
board.processor.switch.core.lsq0.loadToUse::mean     3.078536                       # Distribution of cycle latency between the first time a load is issued and its completion (Unspecified)
board.processor.switch.core.lsq0.loadToUse::stdev     5.769321                       # Distribution of cycle latency between the first time a load is issued and its completion (Unspecified)
board.processor.switch.core.lsq0.loadToUse::0-9    596927466     96.96%     96.96% # Distribution of cycle latency between the first time a load is issued and its completion (Unspecified)
board.processor.switch.core.lsq0.loadToUse::10-19     15922100      2.59%     99.55% # Distribution of cycle latency between the first time a load is issued and its completion (Unspecified)
board.processor.switch.core.lsq0.loadToUse::20-29      1871292      0.30%     99.85% # Distribution of cycle latency between the first time a load is issued and its completion (Unspecified)
board.processor.switch.core.lsq0.loadToUse::30-39        46484      0.01%     99.86% # Distribution of cycle latency between the first time a load is issued and its completion (Unspecified)
board.processor.switch.core.lsq0.loadToUse::40-49        18775      0.00%     99.86% # Distribution of cycle latency between the first time a load is issued and its completion (Unspecified)
board.processor.switch.core.lsq0.loadToUse::50-59        50484      0.01%     99.87% # Distribution of cycle latency between the first time a load is issued and its completion (Unspecified)
board.processor.switch.core.lsq0.loadToUse::60-69         3142      0.00%     99.87% # Distribution of cycle latency between the first time a load is issued and its completion (Unspecified)
board.processor.switch.core.lsq0.loadToUse::70-79          754      0.00%     99.87% # Distribution of cycle latency between the first time a load is issued and its completion (Unspecified)
board.processor.switch.core.lsq0.loadToUse::80-89          780      0.00%     99.87% # Distribution of cycle latency between the first time a load is issued and its completion (Unspecified)
board.processor.switch.core.lsq0.loadToUse::90-99          667      0.00%     99.87% # Distribution of cycle latency between the first time a load is issued and its completion (Unspecified)
board.processor.switch.core.lsq0.loadToUse::100-109        19399      0.00%     99.87% # Distribution of cycle latency between the first time a load is issued and its completion (Unspecified)
board.processor.switch.core.lsq0.loadToUse::110-119        52476      0.01%     99.88% # Distribution of cycle latency between the first time a load is issued and its completion (Unspecified)
board.processor.switch.core.lsq0.loadToUse::120-129       199778      0.03%     99.91% # Distribution of cycle latency between the first time a load is issued and its completion (Unspecified)
board.processor.switch.core.lsq0.loadToUse::130-139       209218      0.03%     99.95% # Distribution of cycle latency between the first time a load is issued and its completion (Unspecified)
board.processor.switch.core.lsq0.loadToUse::140-149       132700      0.02%     99.97% # Distribution of cycle latency between the first time a load is issued and its completion (Unspecified)
board.processor.switch.core.lsq0.loadToUse::150-159        50269      0.01%     99.98% # Distribution of cycle latency between the first time a load is issued and its completion (Unspecified)
board.processor.switch.core.lsq0.loadToUse::160-169        44434      0.01%     99.98% # Distribution of cycle latency between the first time a load is issued and its completion (Unspecified)
board.processor.switch.core.lsq0.loadToUse::170-179        45711      0.01%     99.99% # Distribution of cycle latency between the first time a load is issued and its completion (Unspecified)
board.processor.switch.core.lsq0.loadToUse::180-189        32562      0.01%    100.00% # Distribution of cycle latency between the first time a load is issued and its completion (Unspecified)
board.processor.switch.core.lsq0.loadToUse::190-199        11213      0.00%    100.00% # Distribution of cycle latency between the first time a load is issued and its completion (Unspecified)
board.processor.switch.core.lsq0.loadToUse::200-209         1269      0.00%    100.00% # Distribution of cycle latency between the first time a load is issued and its completion (Unspecified)
board.processor.switch.core.lsq0.loadToUse::210-219          146      0.00%    100.00% # Distribution of cycle latency between the first time a load is issued and its completion (Unspecified)
board.processor.switch.core.lsq0.loadToUse::220-229            8      0.00%    100.00% # Distribution of cycle latency between the first time a load is issued and its completion (Unspecified)
board.processor.switch.core.lsq0.loadToUse::230-239           12      0.00%    100.00% # Distribution of cycle latency between the first time a load is issued and its completion (Unspecified)
board.processor.switch.core.lsq0.loadToUse::240-249          589      0.00%    100.00% # Distribution of cycle latency between the first time a load is issued and its completion (Unspecified)
board.processor.switch.core.lsq0.loadToUse::250-259          378      0.00%    100.00% # Distribution of cycle latency between the first time a load is issued and its completion (Unspecified)
board.processor.switch.core.lsq0.loadToUse::260-269          374      0.00%    100.00% # Distribution of cycle latency between the first time a load is issued and its completion (Unspecified)
board.processor.switch.core.lsq0.loadToUse::270-279         1174      0.00%    100.00% # Distribution of cycle latency between the first time a load is issued and its completion (Unspecified)
board.processor.switch.core.lsq0.loadToUse::280-289          427      0.00%    100.00% # Distribution of cycle latency between the first time a load is issued and its completion (Unspecified)
board.processor.switch.core.lsq0.loadToUse::290-299          440      0.00%    100.00% # Distribution of cycle latency between the first time a load is issued and its completion (Unspecified)
board.processor.switch.core.lsq0.loadToUse::overflows         5096      0.00%    100.00% # Distribution of cycle latency between the first time a load is issued and its completion (Unspecified)
board.processor.switch.core.lsq0.loadToUse::min_value            2                       # Distribution of cycle latency between the first time a load is issued and its completion (Unspecified)
board.processor.switch.core.lsq0.loadToUse::max_value         1052                       # Distribution of cycle latency between the first time a load is issued and its completion (Unspecified)
board.processor.switch.core.lsq0.loadToUse::total    615649617                       # Distribution of cycle latency between the first time a load is issued and its completion (Unspecified)
board.processor.switch.core.mmu.dtb.rdAccesses    674592235                       # TLB accesses on read requests (Count)
board.processor.switch.core.mmu.dtb.wrAccesses    134983253                       # TLB accesses on write requests (Count)
board.processor.switch.core.mmu.dtb.rdMisses        49725                       # TLB misses on read requests (Count)
board.processor.switch.core.mmu.dtb.wrMisses        15044                       # TLB misses on write requests (Count)
board.processor.switch.core.mmu.dtb.walker.power_state.pwrStateResidencyTicks::UNDEFINED 103494075782208                       # Cumulative time (in ticks) in various power states (Tick)
board.processor.switch.core.mmu.itb.rdAccesses            0                       # TLB accesses on read requests (Count)
board.processor.switch.core.mmu.itb.wrAccesses    273409646                       # TLB accesses on write requests (Count)
board.processor.switch.core.mmu.itb.rdMisses            0                       # TLB misses on read requests (Count)
board.processor.switch.core.mmu.itb.wrMisses           97                       # TLB misses on write requests (Count)
board.processor.switch.core.mmu.itb.walker.power_state.pwrStateResidencyTicks::UNDEFINED 103494075782208                       # Cumulative time (in ticks) in various power states (Tick)
board.processor.switch.core.power_state.numTransitions            2                       # Number of power state transitions (Count)
board.processor.switch.core.power_state.ticksClkGated::samples            1                       # Distribution of time spent in the clock gated state (Tick)
board.processor.switch.core.power_state.ticksClkGated::mean      1127365                       # Distribution of time spent in the clock gated state (Tick)
board.processor.switch.core.power_state.ticksClkGated::1000-5e+10            1    100.00%    100.00% # Distribution of time spent in the clock gated state (Tick)
board.processor.switch.core.power_state.ticksClkGated::min_value      1127365                       # Distribution of time spent in the clock gated state (Tick)
board.processor.switch.core.power_state.ticksClkGated::max_value      1127365                       # Distribution of time spent in the clock gated state (Tick)
board.processor.switch.core.power_state.ticksClkGated::total            1                       # Distribution of time spent in the clock gated state (Tick)
board.processor.switch.core.power_state.pwrStateResidencyTicks::ON 253104051563                       # Cumulative time (in ticks) in various power states (Tick)
board.processor.switch.core.power_state.pwrStateResidencyTicks::CLK_GATED      1127365                       # Cumulative time (in ticks) in various power states (Tick)
board.processor.switch.core.power_state.pwrStateResidencyTicks::OFF 103240970603280                       # Cumulative time (in ticks) in various power states (Tick)
board.processor.switch.core.rename.squashCycles      2266933                       # Number of cycles rename is squashing (Cycle)
board.processor.switch.core.rename.idleCycles     85065259                       # Number of cycles rename is idle (Cycle)
board.processor.switch.core.rename.blockCycles     51938242                       # Number of cycles rename is blocking (Cycle)
board.processor.switch.core.rename.serializeStallCycles      2559965                       # count of cycles rename stalled for serializing inst (Cycle)
board.processor.switch.core.rename.runCycles    568985063                       # Number of cycles rename is running (Cycle)
board.processor.switch.core.rename.unblockCycles     97094933                       # Number of cycles rename is unblocking (Cycle)
board.processor.switch.core.rename.renamedInsts   4247669522                       # Number of instructions processed by rename (Count)
board.processor.switch.core.rename.ROBFullEvents        99373                       # Number of times rename has blocked due to ROB full (Count)
board.processor.switch.core.rename.IQFullEvents     69966162                       # Number of times rename has blocked due to IQ full (Count)
board.processor.switch.core.rename.LQFullEvents        28737                       # Number of times rename has blocked due to LQ full (Count)
board.processor.switch.core.rename.SQFullEvents       332097                       # Number of times rename has blocked due to SQ full (Count)
board.processor.switch.core.rename.renamedOperands   5063947602                       # Number of destination operands rename has renamed (Count)
board.processor.switch.core.rename.lookups  10114105872                       # Number of register rename lookups that rename has made (Count)
board.processor.switch.core.rename.intLookups   2004659189                       # Number of integer rename lookups (Count)
board.processor.switch.core.rename.fpLookups   4279909881                       # Number of floating rename lookups (Count)
board.processor.switch.core.rename.committedMaps   4790320639                       # Number of HB maps that are committed (Count)
board.processor.switch.core.rename.undoneMaps    273626856                       # Number of HB maps that are undone due to squashing (Count)
board.processor.switch.core.rename.serializing        22529                       # count of serializing insts renamed (Count)
board.processor.switch.core.rename.tempSerializing        22755                       # count of temporary serializing insts renamed (Count)
board.processor.switch.core.rename.skidInsts    284096434                       # count of insts added to the skid buffer (Count)
board.processor.switch.core.rob.reads      4593241429                       # The number of ROB reads (Count)
board.processor.switch.core.rob.writes     8471800893                       # The number of ROB writes (Count)
board.processor.switch.core.thread_0.numInsts   2179339778                       # Number of Instructions committed (Count)
board.processor.switch.core.thread_0.numOps   4024388165                       # Number of Ops committed (Count)
board.processor.switch.core.thread_0.numMemRefs            0                       # Number of Memory References (Count)
board.workload.inst.arm                             0                       # number of arm instructions executed (Count)
board.workload.inst.quiesce                         0                       # number of quiesce instructions executed (Count)

---------- End Simulation Statistics   ----------
