
---------- Begin Simulation Statistics ----------
simSeconds                                   0.017287                       # Number of seconds simulated (Second)
simTicks                                  17287370295                       # Number of ticks simulated (Tick)
finalTick                                101618642137755                       # Number of ticks from beginning of simulation (restored from checkpoints and never reset) (Tick)
simFreq                                  1000000000000                       # The number of ticks per simulated second ((Tick/Second))
hostSeconds                                    440.64                       # Real time elapsed on the host (Second)
hostTickRate                                 39232803                       # The number of ticks simulated per host second (ticks/s) ((Tick/Second))
hostMemory                                    3542896                       # Number of bytes of host memory used (Byte)
simInsts                                   4958328554                       # Number of instructions simulated (Count)
simOps                                     5079167890                       # Number of ops (including micro ops) simulated (Count)
hostInstRate                                 11252664                       # Simulator instruction rate (inst/s) ((Count/Second))
hostOpRate                                   11526901                       # Simulator op (including micro ops) rate (op/s) ((Count/Second))
board.apicbridge.power_state.pwrStateResidencyTicks::UNDEFINED 101618642137755                       # Cumulative time (in ticks) in various power states (Tick)
board.bridge.power_state.pwrStateResidencyTicks::UNDEFINED 101618642137755                       # Cumulative time (in ticks) in various power states (Tick)
board.cache_hierarchy.dptw_caches.demandHits::processor.switch.core.mmu.dtb.walker         3475                       # number of demand (read+write) hits (Count)
board.cache_hierarchy.dptw_caches.demandHits::total         3475                       # number of demand (read+write) hits (Count)
board.cache_hierarchy.dptw_caches.overallHits::processor.switch.core.mmu.dtb.walker         3475                       # number of overall hits (Count)
board.cache_hierarchy.dptw_caches.overallHits::total         3475                       # number of overall hits (Count)
board.cache_hierarchy.dptw_caches.demandMisses::processor.switch.core.mmu.dtb.walker          270                       # number of demand (read+write) misses (Count)
board.cache_hierarchy.dptw_caches.demandMisses::total          270                       # number of demand (read+write) misses (Count)
board.cache_hierarchy.dptw_caches.overallMisses::processor.switch.core.mmu.dtb.walker          270                       # number of overall misses (Count)
board.cache_hierarchy.dptw_caches.overallMisses::total          270                       # number of overall misses (Count)
board.cache_hierarchy.dptw_caches.demandMissLatency::processor.switch.core.mmu.dtb.walker      8722684                       # number of demand (read+write) miss ticks (Tick)
board.cache_hierarchy.dptw_caches.demandMissLatency::total      8722684                       # number of demand (read+write) miss ticks (Tick)
board.cache_hierarchy.dptw_caches.overallMissLatency::processor.switch.core.mmu.dtb.walker      8722684                       # number of overall miss ticks (Tick)
board.cache_hierarchy.dptw_caches.overallMissLatency::total      8722684                       # number of overall miss ticks (Tick)
board.cache_hierarchy.dptw_caches.demandAccesses::processor.switch.core.mmu.dtb.walker         3745                       # number of demand (read+write) accesses (Count)
board.cache_hierarchy.dptw_caches.demandAccesses::total         3745                       # number of demand (read+write) accesses (Count)
board.cache_hierarchy.dptw_caches.overallAccesses::processor.switch.core.mmu.dtb.walker         3745                       # number of overall (read+write) accesses (Count)
board.cache_hierarchy.dptw_caches.overallAccesses::total         3745                       # number of overall (read+write) accesses (Count)
board.cache_hierarchy.dptw_caches.demandMissRate::processor.switch.core.mmu.dtb.walker     0.072096                       # miss rate for demand accesses (Ratio)
board.cache_hierarchy.dptw_caches.demandMissRate::total     0.072096                       # miss rate for demand accesses (Ratio)
board.cache_hierarchy.dptw_caches.overallMissRate::processor.switch.core.mmu.dtb.walker     0.072096                       # miss rate for overall accesses (Ratio)
board.cache_hierarchy.dptw_caches.overallMissRate::total     0.072096                       # miss rate for overall accesses (Ratio)
board.cache_hierarchy.dptw_caches.demandAvgMissLatency::processor.switch.core.mmu.dtb.walker 32306.237037                       # average overall miss latency in ticks ((Tick/Count))
board.cache_hierarchy.dptw_caches.demandAvgMissLatency::total 32306.237037                       # average overall miss latency in ticks ((Tick/Count))
board.cache_hierarchy.dptw_caches.overallAvgMissLatency::processor.switch.core.mmu.dtb.walker 32306.237037                       # average overall miss latency ((Tick/Count))
board.cache_hierarchy.dptw_caches.overallAvgMissLatency::total 32306.237037                       # average overall miss latency ((Tick/Count))
board.cache_hierarchy.dptw_caches.blockedCycles::no_mshrs            0                       # number of cycles access was blocked (Cycle)
board.cache_hierarchy.dptw_caches.blockedCycles::no_targets            0                       # number of cycles access was blocked (Cycle)
board.cache_hierarchy.dptw_caches.blockedCauses::no_mshrs            0                       # number of times access was blocked (Count)
board.cache_hierarchy.dptw_caches.blockedCauses::no_targets            0                       # number of times access was blocked (Count)
board.cache_hierarchy.dptw_caches.avgBlocked::no_mshrs          nan                       # average number of cycles each access was blocked ((Cycle/Count))
board.cache_hierarchy.dptw_caches.avgBlocked::no_targets          nan                       # average number of cycles each access was blocked ((Cycle/Count))
board.cache_hierarchy.dptw_caches.demandMshrMisses::processor.switch.core.mmu.dtb.walker          270                       # number of demand (read+write) MSHR misses (Count)
board.cache_hierarchy.dptw_caches.demandMshrMisses::total          270                       # number of demand (read+write) MSHR misses (Count)
board.cache_hierarchy.dptw_caches.overallMshrMisses::processor.switch.core.mmu.dtb.walker          270                       # number of overall MSHR misses (Count)
board.cache_hierarchy.dptw_caches.overallMshrMisses::total          270                       # number of overall MSHR misses (Count)
board.cache_hierarchy.dptw_caches.demandMshrMissLatency::processor.switch.core.mmu.dtb.walker      8638174                       # number of demand (read+write) MSHR miss ticks (Tick)
board.cache_hierarchy.dptw_caches.demandMshrMissLatency::total      8638174                       # number of demand (read+write) MSHR miss ticks (Tick)
board.cache_hierarchy.dptw_caches.overallMshrMissLatency::processor.switch.core.mmu.dtb.walker      8638174                       # number of overall MSHR miss ticks (Tick)
board.cache_hierarchy.dptw_caches.overallMshrMissLatency::total      8638174                       # number of overall MSHR miss ticks (Tick)
board.cache_hierarchy.dptw_caches.demandMshrMissRate::processor.switch.core.mmu.dtb.walker     0.072096                       # mshr miss ratio for demand accesses (Ratio)
board.cache_hierarchy.dptw_caches.demandMshrMissRate::total     0.072096                       # mshr miss ratio for demand accesses (Ratio)
board.cache_hierarchy.dptw_caches.overallMshrMissRate::processor.switch.core.mmu.dtb.walker     0.072096                       # mshr miss ratio for overall accesses (Ratio)
board.cache_hierarchy.dptw_caches.overallMshrMissRate::total     0.072096                       # mshr miss ratio for overall accesses (Ratio)
board.cache_hierarchy.dptw_caches.demandAvgMshrMissLatency::processor.switch.core.mmu.dtb.walker 31993.237037                       # average overall mshr miss latency ((Tick/Count))
board.cache_hierarchy.dptw_caches.demandAvgMshrMissLatency::total 31993.237037                       # average overall mshr miss latency ((Tick/Count))
board.cache_hierarchy.dptw_caches.overallAvgMshrMissLatency::processor.switch.core.mmu.dtb.walker 31993.237037                       # average overall mshr miss latency ((Tick/Count))
board.cache_hierarchy.dptw_caches.overallAvgMshrMissLatency::total 31993.237037                       # average overall mshr miss latency ((Tick/Count))
board.cache_hierarchy.dptw_caches.replacements          173                       # number of replacements (Count)
board.cache_hierarchy.dptw_caches.ReadReq.hits::processor.switch.core.mmu.dtb.walker         3475                       # number of ReadReq hits (Count)
board.cache_hierarchy.dptw_caches.ReadReq.hits::total         3475                       # number of ReadReq hits (Count)
board.cache_hierarchy.dptw_caches.ReadReq.misses::processor.switch.core.mmu.dtb.walker          270                       # number of ReadReq misses (Count)
board.cache_hierarchy.dptw_caches.ReadReq.misses::total          270                       # number of ReadReq misses (Count)
board.cache_hierarchy.dptw_caches.ReadReq.missLatency::processor.switch.core.mmu.dtb.walker      8722684                       # number of ReadReq miss ticks (Tick)
board.cache_hierarchy.dptw_caches.ReadReq.missLatency::total      8722684                       # number of ReadReq miss ticks (Tick)
board.cache_hierarchy.dptw_caches.ReadReq.accesses::processor.switch.core.mmu.dtb.walker         3745                       # number of ReadReq accesses(hits+misses) (Count)
board.cache_hierarchy.dptw_caches.ReadReq.accesses::total         3745                       # number of ReadReq accesses(hits+misses) (Count)
board.cache_hierarchy.dptw_caches.ReadReq.missRate::processor.switch.core.mmu.dtb.walker     0.072096                       # miss rate for ReadReq accesses (Ratio)
board.cache_hierarchy.dptw_caches.ReadReq.missRate::total     0.072096                       # miss rate for ReadReq accesses (Ratio)
board.cache_hierarchy.dptw_caches.ReadReq.avgMissLatency::processor.switch.core.mmu.dtb.walker 32306.237037                       # average ReadReq miss latency ((Tick/Count))
board.cache_hierarchy.dptw_caches.ReadReq.avgMissLatency::total 32306.237037                       # average ReadReq miss latency ((Tick/Count))
board.cache_hierarchy.dptw_caches.ReadReq.mshrMisses::processor.switch.core.mmu.dtb.walker          270                       # number of ReadReq MSHR misses (Count)
board.cache_hierarchy.dptw_caches.ReadReq.mshrMisses::total          270                       # number of ReadReq MSHR misses (Count)
board.cache_hierarchy.dptw_caches.ReadReq.mshrMissLatency::processor.switch.core.mmu.dtb.walker      8638174                       # number of ReadReq MSHR miss ticks (Tick)
board.cache_hierarchy.dptw_caches.ReadReq.mshrMissLatency::total      8638174                       # number of ReadReq MSHR miss ticks (Tick)
board.cache_hierarchy.dptw_caches.ReadReq.mshrMissRate::processor.switch.core.mmu.dtb.walker     0.072096                       # mshr miss rate for ReadReq accesses (Ratio)
board.cache_hierarchy.dptw_caches.ReadReq.mshrMissRate::total     0.072096                       # mshr miss rate for ReadReq accesses (Ratio)
board.cache_hierarchy.dptw_caches.ReadReq.avgMshrMissLatency::processor.switch.core.mmu.dtb.walker 31993.237037                       # average ReadReq mshr miss latency ((Tick/Count))
board.cache_hierarchy.dptw_caches.ReadReq.avgMshrMissLatency::total 31993.237037                       # average ReadReq mshr miss latency ((Tick/Count))
board.cache_hierarchy.dptw_caches.power_state.pwrStateResidencyTicks::UNDEFINED 101618642137755                       # Cumulative time (in ticks) in various power states (Tick)
board.cache_hierarchy.dptw_caches.tags.tagsInUse    66.370067                       # Average ticks per tags in use ((Tick/Count))
board.cache_hierarchy.dptw_caches.tags.totalRefs         1914                       # Total number of references to valid blocks. (Count)
board.cache_hierarchy.dptw_caches.tags.sampledRefs          179                       # Sample count of references to valid blocks. (Count)
board.cache_hierarchy.dptw_caches.tags.avgRefs    10.692737                       # Average number of references to valid blocks. ((Count/Count))
board.cache_hierarchy.dptw_caches.tags.warmupTick 101601354805903                       # The tick when the warmup percentage was hit. (Tick)
board.cache_hierarchy.dptw_caches.tags.occupancies::processor.switch.core.mmu.dtb.walker    66.370067                       # Average occupied blocks per tick, per requestor ((Count/Tick))
board.cache_hierarchy.dptw_caches.tags.avgOccs::processor.switch.core.mmu.dtb.walker     0.518516                       # Average percentage of cache occupancy ((Ratio/Tick))
board.cache_hierarchy.dptw_caches.tags.avgOccs::total     0.518516                       # Average percentage of cache occupancy ((Ratio/Tick))
board.cache_hierarchy.dptw_caches.tags.occupanciesTaskId::1024           91                       # Occupied blocks per task id (Count)
board.cache_hierarchy.dptw_caches.tags.ageTaskId_1024::2           26                       # Occupied blocks per task id, per block age (Count)
board.cache_hierarchy.dptw_caches.tags.ageTaskId_1024::3           18                       # Occupied blocks per task id, per block age (Count)
board.cache_hierarchy.dptw_caches.tags.ageTaskId_1024::4           47                       # Occupied blocks per task id, per block age (Count)
board.cache_hierarchy.dptw_caches.tags.ratioOccsTaskId::1024     0.710938                       # Ratio of occupied blocks and all blocks, per task id (Ratio)
board.cache_hierarchy.dptw_caches.tags.tagAccesses        15250                       # Number of tag accesses (Count)
board.cache_hierarchy.dptw_caches.tags.dataAccesses        15250                       # Number of data accesses (Count)
board.cache_hierarchy.dptw_caches.tags.power_state.pwrStateResidencyTicks::UNDEFINED 101618642137755                       # Cumulative time (in ticks) in various power states (Tick)
board.cache_hierarchy.iocache.demandMisses::pc.south_bridge.ide          769                       # number of demand (read+write) misses (Count)
board.cache_hierarchy.iocache.demandMisses::total          769                       # number of demand (read+write) misses (Count)
board.cache_hierarchy.iocache.overallMisses::pc.south_bridge.ide          769                       # number of overall misses (Count)
board.cache_hierarchy.iocache.overallMisses::total          769                       # number of overall misses (Count)
board.cache_hierarchy.iocache.demandMissLatency::pc.south_bridge.ide     34390938                       # number of demand (read+write) miss ticks (Tick)
board.cache_hierarchy.iocache.demandMissLatency::total     34390938                       # number of demand (read+write) miss ticks (Tick)
board.cache_hierarchy.iocache.overallMissLatency::pc.south_bridge.ide     34390938                       # number of overall miss ticks (Tick)
board.cache_hierarchy.iocache.overallMissLatency::total     34390938                       # number of overall miss ticks (Tick)
board.cache_hierarchy.iocache.demandAccesses::pc.south_bridge.ide          769                       # number of demand (read+write) accesses (Count)
board.cache_hierarchy.iocache.demandAccesses::total          769                       # number of demand (read+write) accesses (Count)
board.cache_hierarchy.iocache.overallAccesses::pc.south_bridge.ide          769                       # number of overall (read+write) accesses (Count)
board.cache_hierarchy.iocache.overallAccesses::total          769                       # number of overall (read+write) accesses (Count)
board.cache_hierarchy.iocache.demandMissRate::pc.south_bridge.ide            1                       # miss rate for demand accesses (Ratio)
board.cache_hierarchy.iocache.demandMissRate::total            1                       # miss rate for demand accesses (Ratio)
board.cache_hierarchy.iocache.overallMissRate::pc.south_bridge.ide            1                       # miss rate for overall accesses (Ratio)
board.cache_hierarchy.iocache.overallMissRate::total            1                       # miss rate for overall accesses (Ratio)
board.cache_hierarchy.iocache.demandAvgMissLatency::pc.south_bridge.ide 44721.635891                       # average overall miss latency in ticks ((Tick/Count))
board.cache_hierarchy.iocache.demandAvgMissLatency::total 44721.635891                       # average overall miss latency in ticks ((Tick/Count))
board.cache_hierarchy.iocache.overallAvgMissLatency::pc.south_bridge.ide 44721.635891                       # average overall miss latency ((Tick/Count))
board.cache_hierarchy.iocache.overallAvgMissLatency::total 44721.635891                       # average overall miss latency ((Tick/Count))
board.cache_hierarchy.iocache.blockedCycles::no_mshrs           72                       # number of cycles access was blocked (Cycle)
board.cache_hierarchy.iocache.blockedCycles::no_targets            0                       # number of cycles access was blocked (Cycle)
board.cache_hierarchy.iocache.blockedCauses::no_mshrs            5                       # number of times access was blocked (Count)
board.cache_hierarchy.iocache.blockedCauses::no_targets            0                       # number of times access was blocked (Count)
board.cache_hierarchy.iocache.avgBlocked::no_mshrs    14.400000                       # average number of cycles each access was blocked ((Cycle/Count))
board.cache_hierarchy.iocache.avgBlocked::no_targets          nan                       # average number of cycles each access was blocked ((Cycle/Count))
board.cache_hierarchy.iocache.writebacks::writebacks          752                       # number of writebacks (Count)
board.cache_hierarchy.iocache.writebacks::total          752                       # number of writebacks (Count)
board.cache_hierarchy.iocache.demandMshrMisses::pc.south_bridge.ide          769                       # number of demand (read+write) MSHR misses (Count)
board.cache_hierarchy.iocache.demandMshrMisses::total          769                       # number of demand (read+write) MSHR misses (Count)
board.cache_hierarchy.iocache.overallMshrMisses::pc.south_bridge.ide          769                       # number of overall MSHR misses (Count)
board.cache_hierarchy.iocache.overallMshrMisses::total          769                       # number of overall MSHR misses (Count)
board.cache_hierarchy.iocache.demandMshrMissLatency::pc.south_bridge.ide     22347330                       # number of demand (read+write) MSHR miss ticks (Tick)
board.cache_hierarchy.iocache.demandMshrMissLatency::total     22347330                       # number of demand (read+write) MSHR miss ticks (Tick)
board.cache_hierarchy.iocache.overallMshrMissLatency::pc.south_bridge.ide     22347330                       # number of overall MSHR miss ticks (Tick)
board.cache_hierarchy.iocache.overallMshrMissLatency::total     22347330                       # number of overall MSHR miss ticks (Tick)
board.cache_hierarchy.iocache.demandMshrMissRate::pc.south_bridge.ide            1                       # mshr miss ratio for demand accesses (Ratio)
board.cache_hierarchy.iocache.demandMshrMissRate::total            1                       # mshr miss ratio for demand accesses (Ratio)
board.cache_hierarchy.iocache.overallMshrMissRate::pc.south_bridge.ide            1                       # mshr miss ratio for overall accesses (Ratio)
board.cache_hierarchy.iocache.overallMshrMissRate::total            1                       # mshr miss ratio for overall accesses (Ratio)
board.cache_hierarchy.iocache.demandAvgMshrMissLatency::pc.south_bridge.ide 29060.247074                       # average overall mshr miss latency ((Tick/Count))
board.cache_hierarchy.iocache.demandAvgMshrMissLatency::total 29060.247074                       # average overall mshr miss latency ((Tick/Count))
board.cache_hierarchy.iocache.overallAvgMshrMissLatency::pc.south_bridge.ide 29060.247074                       # average overall mshr miss latency ((Tick/Count))
board.cache_hierarchy.iocache.overallAvgMshrMissLatency::total 29060.247074                       # average overall mshr miss latency ((Tick/Count))
board.cache_hierarchy.iocache.replacements          753                       # number of replacements (Count)
board.cache_hierarchy.iocache.ReadReq.misses::pc.south_bridge.ide            1                       # number of ReadReq misses (Count)
board.cache_hierarchy.iocache.ReadReq.misses::total            1                       # number of ReadReq misses (Count)
board.cache_hierarchy.iocache.ReadReq.missLatency::pc.south_bridge.ide        37872                       # number of ReadReq miss ticks (Tick)
board.cache_hierarchy.iocache.ReadReq.missLatency::total        37872                       # number of ReadReq miss ticks (Tick)
board.cache_hierarchy.iocache.ReadReq.accesses::pc.south_bridge.ide            1                       # number of ReadReq accesses(hits+misses) (Count)
board.cache_hierarchy.iocache.ReadReq.accesses::total            1                       # number of ReadReq accesses(hits+misses) (Count)
board.cache_hierarchy.iocache.ReadReq.missRate::pc.south_bridge.ide            1                       # miss rate for ReadReq accesses (Ratio)
board.cache_hierarchy.iocache.ReadReq.missRate::total            1                       # miss rate for ReadReq accesses (Ratio)
board.cache_hierarchy.iocache.ReadReq.avgMissLatency::pc.south_bridge.ide        37872                       # average ReadReq miss latency ((Tick/Count))
board.cache_hierarchy.iocache.ReadReq.avgMissLatency::total        37872                       # average ReadReq miss latency ((Tick/Count))
board.cache_hierarchy.iocache.ReadReq.mshrMisses::pc.south_bridge.ide            1                       # number of ReadReq MSHR misses (Count)
board.cache_hierarchy.iocache.ReadReq.mshrMisses::total            1                       # number of ReadReq MSHR misses (Count)
board.cache_hierarchy.iocache.ReadReq.mshrMissLatency::pc.south_bridge.ide        22222                       # number of ReadReq MSHR miss ticks (Tick)
board.cache_hierarchy.iocache.ReadReq.mshrMissLatency::total        22222                       # number of ReadReq MSHR miss ticks (Tick)
board.cache_hierarchy.iocache.ReadReq.mshrMissRate::pc.south_bridge.ide            1                       # mshr miss rate for ReadReq accesses (Ratio)
board.cache_hierarchy.iocache.ReadReq.mshrMissRate::total            1                       # mshr miss rate for ReadReq accesses (Ratio)
board.cache_hierarchy.iocache.ReadReq.avgMshrMissLatency::pc.south_bridge.ide        22222                       # average ReadReq mshr miss latency ((Tick/Count))
board.cache_hierarchy.iocache.ReadReq.avgMshrMissLatency::total        22222                       # average ReadReq mshr miss latency ((Tick/Count))
board.cache_hierarchy.iocache.WriteLineReq.misses::pc.south_bridge.ide          768                       # number of WriteLineReq misses (Count)
board.cache_hierarchy.iocache.WriteLineReq.misses::total          768                       # number of WriteLineReq misses (Count)
board.cache_hierarchy.iocache.WriteLineReq.missLatency::pc.south_bridge.ide     34353066                       # number of WriteLineReq miss ticks (Tick)
board.cache_hierarchy.iocache.WriteLineReq.missLatency::total     34353066                       # number of WriteLineReq miss ticks (Tick)
board.cache_hierarchy.iocache.WriteLineReq.accesses::pc.south_bridge.ide          768                       # number of WriteLineReq accesses(hits+misses) (Count)
board.cache_hierarchy.iocache.WriteLineReq.accesses::total          768                       # number of WriteLineReq accesses(hits+misses) (Count)
board.cache_hierarchy.iocache.WriteLineReq.missRate::pc.south_bridge.ide            1                       # miss rate for WriteLineReq accesses (Ratio)
board.cache_hierarchy.iocache.WriteLineReq.missRate::total            1                       # miss rate for WriteLineReq accesses (Ratio)
board.cache_hierarchy.iocache.WriteLineReq.avgMissLatency::pc.south_bridge.ide 44730.554688                       # average WriteLineReq miss latency ((Tick/Count))
board.cache_hierarchy.iocache.WriteLineReq.avgMissLatency::total 44730.554688                       # average WriteLineReq miss latency ((Tick/Count))
board.cache_hierarchy.iocache.WriteLineReq.mshrMisses::pc.south_bridge.ide          768                       # number of WriteLineReq MSHR misses (Count)
board.cache_hierarchy.iocache.WriteLineReq.mshrMisses::total          768                       # number of WriteLineReq MSHR misses (Count)
board.cache_hierarchy.iocache.WriteLineReq.mshrMissLatency::pc.south_bridge.ide     22325108                       # number of WriteLineReq MSHR miss ticks (Tick)
board.cache_hierarchy.iocache.WriteLineReq.mshrMissLatency::total     22325108                       # number of WriteLineReq MSHR miss ticks (Tick)
board.cache_hierarchy.iocache.WriteLineReq.mshrMissRate::pc.south_bridge.ide            1                       # mshr miss rate for WriteLineReq accesses (Ratio)
board.cache_hierarchy.iocache.WriteLineReq.mshrMissRate::total            1                       # mshr miss rate for WriteLineReq accesses (Ratio)
board.cache_hierarchy.iocache.WriteLineReq.avgMshrMissLatency::pc.south_bridge.ide 29069.151042                       # average WriteLineReq mshr miss latency ((Tick/Count))
board.cache_hierarchy.iocache.WriteLineReq.avgMshrMissLatency::total 29069.151042                       # average WriteLineReq mshr miss latency ((Tick/Count))
board.cache_hierarchy.iocache.power_state.pwrStateResidencyTicks::UNDEFINED 101618642137755                       # Cumulative time (in ticks) in various power states (Tick)
board.cache_hierarchy.iocache.tags.tagsInUse    15.175582                       # Average ticks per tags in use ((Tick/Count))
board.cache_hierarchy.iocache.tags.totalRefs          753                       # Total number of references to valid blocks. (Count)
board.cache_hierarchy.iocache.tags.sampledRefs          753                       # Sample count of references to valid blocks. (Count)
board.cache_hierarchy.iocache.tags.avgRefs            1                       # Average number of references to valid blocks. ((Count/Count))
board.cache_hierarchy.iocache.tags.warmupTick 101602244537825                       # The tick when the warmup percentage was hit. (Tick)
board.cache_hierarchy.iocache.tags.occupancies::pc.south_bridge.ide    15.175582                       # Average occupied blocks per tick, per requestor ((Count/Tick))
board.cache_hierarchy.iocache.tags.avgOccs::pc.south_bridge.ide     0.948474                       # Average percentage of cache occupancy ((Ratio/Tick))
board.cache_hierarchy.iocache.tags.avgOccs::total     0.948474                       # Average percentage of cache occupancy ((Ratio/Tick))
board.cache_hierarchy.iocache.tags.occupanciesTaskId::1023           16                       # Occupied blocks per task id (Count)
board.cache_hierarchy.iocache.tags.ageTaskId_1023::4           16                       # Occupied blocks per task id, per block age (Count)
board.cache_hierarchy.iocache.tags.ratioOccsTaskId::1023            1                       # Ratio of occupied blocks and all blocks, per task id (Ratio)
board.cache_hierarchy.iocache.tags.tagAccesses         6921                       # Number of tag accesses (Count)
board.cache_hierarchy.iocache.tags.dataAccesses         6921                       # Number of data accesses (Count)
board.cache_hierarchy.iocache.tags.power_state.pwrStateResidencyTicks::UNDEFINED 101618642137755                       # Cumulative time (in ticks) in various power states (Tick)
board.cache_hierarchy.iptw_caches.demandHits::processor.switch.core.mmu.itb.walker          379                       # number of demand (read+write) hits (Count)
board.cache_hierarchy.iptw_caches.demandHits::total          379                       # number of demand (read+write) hits (Count)
board.cache_hierarchy.iptw_caches.overallHits::processor.switch.core.mmu.itb.walker          379                       # number of overall hits (Count)
board.cache_hierarchy.iptw_caches.overallHits::total          379                       # number of overall hits (Count)
board.cache_hierarchy.iptw_caches.demandMisses::processor.switch.core.mmu.itb.walker           49                       # number of demand (read+write) misses (Count)
board.cache_hierarchy.iptw_caches.demandMisses::total           49                       # number of demand (read+write) misses (Count)
board.cache_hierarchy.iptw_caches.overallMisses::processor.switch.core.mmu.itb.walker           49                       # number of overall misses (Count)
board.cache_hierarchy.iptw_caches.overallMisses::total           49                       # number of overall misses (Count)
board.cache_hierarchy.iptw_caches.demandMissLatency::processor.switch.core.mmu.itb.walker      1617271                       # number of demand (read+write) miss ticks (Tick)
board.cache_hierarchy.iptw_caches.demandMissLatency::total      1617271                       # number of demand (read+write) miss ticks (Tick)
board.cache_hierarchy.iptw_caches.overallMissLatency::processor.switch.core.mmu.itb.walker      1617271                       # number of overall miss ticks (Tick)
board.cache_hierarchy.iptw_caches.overallMissLatency::total      1617271                       # number of overall miss ticks (Tick)
board.cache_hierarchy.iptw_caches.demandAccesses::processor.switch.core.mmu.itb.walker          428                       # number of demand (read+write) accesses (Count)
board.cache_hierarchy.iptw_caches.demandAccesses::total          428                       # number of demand (read+write) accesses (Count)
board.cache_hierarchy.iptw_caches.overallAccesses::processor.switch.core.mmu.itb.walker          428                       # number of overall (read+write) accesses (Count)
board.cache_hierarchy.iptw_caches.overallAccesses::total          428                       # number of overall (read+write) accesses (Count)
board.cache_hierarchy.iptw_caches.demandMissRate::processor.switch.core.mmu.itb.walker     0.114486                       # miss rate for demand accesses (Ratio)
board.cache_hierarchy.iptw_caches.demandMissRate::total     0.114486                       # miss rate for demand accesses (Ratio)
board.cache_hierarchy.iptw_caches.overallMissRate::processor.switch.core.mmu.itb.walker     0.114486                       # miss rate for overall accesses (Ratio)
board.cache_hierarchy.iptw_caches.overallMissRate::total     0.114486                       # miss rate for overall accesses (Ratio)
board.cache_hierarchy.iptw_caches.demandAvgMissLatency::processor.switch.core.mmu.itb.walker 33005.530612                       # average overall miss latency in ticks ((Tick/Count))
board.cache_hierarchy.iptw_caches.demandAvgMissLatency::total 33005.530612                       # average overall miss latency in ticks ((Tick/Count))
board.cache_hierarchy.iptw_caches.overallAvgMissLatency::processor.switch.core.mmu.itb.walker 33005.530612                       # average overall miss latency ((Tick/Count))
board.cache_hierarchy.iptw_caches.overallAvgMissLatency::total 33005.530612                       # average overall miss latency ((Tick/Count))
board.cache_hierarchy.iptw_caches.blockedCycles::no_mshrs            0                       # number of cycles access was blocked (Cycle)
board.cache_hierarchy.iptw_caches.blockedCycles::no_targets            0                       # number of cycles access was blocked (Cycle)
board.cache_hierarchy.iptw_caches.blockedCauses::no_mshrs            0                       # number of times access was blocked (Count)
board.cache_hierarchy.iptw_caches.blockedCauses::no_targets            0                       # number of times access was blocked (Count)
board.cache_hierarchy.iptw_caches.avgBlocked::no_mshrs          nan                       # average number of cycles each access was blocked ((Cycle/Count))
board.cache_hierarchy.iptw_caches.avgBlocked::no_targets          nan                       # average number of cycles each access was blocked ((Cycle/Count))
board.cache_hierarchy.iptw_caches.demandMshrMisses::processor.switch.core.mmu.itb.walker           49                       # number of demand (read+write) MSHR misses (Count)
board.cache_hierarchy.iptw_caches.demandMshrMisses::total           49                       # number of demand (read+write) MSHR misses (Count)
board.cache_hierarchy.iptw_caches.overallMshrMisses::processor.switch.core.mmu.itb.walker           49                       # number of overall MSHR misses (Count)
board.cache_hierarchy.iptw_caches.overallMshrMisses::total           49                       # number of overall MSHR misses (Count)
board.cache_hierarchy.iptw_caches.demandMshrMissLatency::processor.switch.core.mmu.itb.walker      1601934                       # number of demand (read+write) MSHR miss ticks (Tick)
board.cache_hierarchy.iptw_caches.demandMshrMissLatency::total      1601934                       # number of demand (read+write) MSHR miss ticks (Tick)
board.cache_hierarchy.iptw_caches.overallMshrMissLatency::processor.switch.core.mmu.itb.walker      1601934                       # number of overall MSHR miss ticks (Tick)
board.cache_hierarchy.iptw_caches.overallMshrMissLatency::total      1601934                       # number of overall MSHR miss ticks (Tick)
board.cache_hierarchy.iptw_caches.demandMshrMissRate::processor.switch.core.mmu.itb.walker     0.114486                       # mshr miss ratio for demand accesses (Ratio)
board.cache_hierarchy.iptw_caches.demandMshrMissRate::total     0.114486                       # mshr miss ratio for demand accesses (Ratio)
board.cache_hierarchy.iptw_caches.overallMshrMissRate::processor.switch.core.mmu.itb.walker     0.114486                       # mshr miss ratio for overall accesses (Ratio)
board.cache_hierarchy.iptw_caches.overallMshrMissRate::total     0.114486                       # mshr miss ratio for overall accesses (Ratio)
board.cache_hierarchy.iptw_caches.demandAvgMshrMissLatency::processor.switch.core.mmu.itb.walker 32692.530612                       # average overall mshr miss latency ((Tick/Count))
board.cache_hierarchy.iptw_caches.demandAvgMshrMissLatency::total 32692.530612                       # average overall mshr miss latency ((Tick/Count))
board.cache_hierarchy.iptw_caches.overallAvgMshrMissLatency::processor.switch.core.mmu.itb.walker 32692.530612                       # average overall mshr miss latency ((Tick/Count))
board.cache_hierarchy.iptw_caches.overallAvgMshrMissLatency::total 32692.530612                       # average overall mshr miss latency ((Tick/Count))
board.cache_hierarchy.iptw_caches.replacements            0                       # number of replacements (Count)
board.cache_hierarchy.iptw_caches.ReadReq.hits::processor.switch.core.mmu.itb.walker          379                       # number of ReadReq hits (Count)
board.cache_hierarchy.iptw_caches.ReadReq.hits::total          379                       # number of ReadReq hits (Count)
board.cache_hierarchy.iptw_caches.ReadReq.misses::processor.switch.core.mmu.itb.walker           49                       # number of ReadReq misses (Count)
board.cache_hierarchy.iptw_caches.ReadReq.misses::total           49                       # number of ReadReq misses (Count)
board.cache_hierarchy.iptw_caches.ReadReq.missLatency::processor.switch.core.mmu.itb.walker      1617271                       # number of ReadReq miss ticks (Tick)
board.cache_hierarchy.iptw_caches.ReadReq.missLatency::total      1617271                       # number of ReadReq miss ticks (Tick)
board.cache_hierarchy.iptw_caches.ReadReq.accesses::processor.switch.core.mmu.itb.walker          428                       # number of ReadReq accesses(hits+misses) (Count)
board.cache_hierarchy.iptw_caches.ReadReq.accesses::total          428                       # number of ReadReq accesses(hits+misses) (Count)
board.cache_hierarchy.iptw_caches.ReadReq.missRate::processor.switch.core.mmu.itb.walker     0.114486                       # miss rate for ReadReq accesses (Ratio)
board.cache_hierarchy.iptw_caches.ReadReq.missRate::total     0.114486                       # miss rate for ReadReq accesses (Ratio)
board.cache_hierarchy.iptw_caches.ReadReq.avgMissLatency::processor.switch.core.mmu.itb.walker 33005.530612                       # average ReadReq miss latency ((Tick/Count))
board.cache_hierarchy.iptw_caches.ReadReq.avgMissLatency::total 33005.530612                       # average ReadReq miss latency ((Tick/Count))
board.cache_hierarchy.iptw_caches.ReadReq.mshrMisses::processor.switch.core.mmu.itb.walker           49                       # number of ReadReq MSHR misses (Count)
board.cache_hierarchy.iptw_caches.ReadReq.mshrMisses::total           49                       # number of ReadReq MSHR misses (Count)
board.cache_hierarchy.iptw_caches.ReadReq.mshrMissLatency::processor.switch.core.mmu.itb.walker      1601934                       # number of ReadReq MSHR miss ticks (Tick)
board.cache_hierarchy.iptw_caches.ReadReq.mshrMissLatency::total      1601934                       # number of ReadReq MSHR miss ticks (Tick)
board.cache_hierarchy.iptw_caches.ReadReq.mshrMissRate::processor.switch.core.mmu.itb.walker     0.114486                       # mshr miss rate for ReadReq accesses (Ratio)
board.cache_hierarchy.iptw_caches.ReadReq.mshrMissRate::total     0.114486                       # mshr miss rate for ReadReq accesses (Ratio)
board.cache_hierarchy.iptw_caches.ReadReq.avgMshrMissLatency::processor.switch.core.mmu.itb.walker 32692.530612                       # average ReadReq mshr miss latency ((Tick/Count))
board.cache_hierarchy.iptw_caches.ReadReq.avgMshrMissLatency::total 32692.530612                       # average ReadReq mshr miss latency ((Tick/Count))
board.cache_hierarchy.iptw_caches.power_state.pwrStateResidencyTicks::UNDEFINED 101618642137755                       # Cumulative time (in ticks) in various power states (Tick)
board.cache_hierarchy.iptw_caches.tags.tagsInUse    15.439698                       # Average ticks per tags in use ((Tick/Count))
board.cache_hierarchy.iptw_caches.tags.totalRefs           21                       # Total number of references to valid blocks. (Count)
board.cache_hierarchy.iptw_caches.tags.sampledRefs            2                       # Sample count of references to valid blocks. (Count)
board.cache_hierarchy.iptw_caches.tags.avgRefs    10.500000                       # Average number of references to valid blocks. ((Count/Count))
board.cache_hierarchy.iptw_caches.tags.warmupTick 101601354805590                       # The tick when the warmup percentage was hit. (Tick)
board.cache_hierarchy.iptw_caches.tags.occupancies::processor.switch.core.mmu.itb.walker    15.439698                       # Average occupied blocks per tick, per requestor ((Count/Tick))
board.cache_hierarchy.iptw_caches.tags.avgOccs::processor.switch.core.mmu.itb.walker     0.120623                       # Average percentage of cache occupancy ((Ratio/Tick))
board.cache_hierarchy.iptw_caches.tags.avgOccs::total     0.120623                       # Average percentage of cache occupancy ((Ratio/Tick))
board.cache_hierarchy.iptw_caches.tags.occupanciesTaskId::1024           47                       # Occupied blocks per task id (Count)
board.cache_hierarchy.iptw_caches.tags.ageTaskId_1024::2           14                       # Occupied blocks per task id, per block age (Count)
board.cache_hierarchy.iptw_caches.tags.ageTaskId_1024::3           19                       # Occupied blocks per task id, per block age (Count)
board.cache_hierarchy.iptw_caches.tags.ageTaskId_1024::4           14                       # Occupied blocks per task id, per block age (Count)
board.cache_hierarchy.iptw_caches.tags.ratioOccsTaskId::1024     0.367188                       # Ratio of occupied blocks and all blocks, per task id (Ratio)
board.cache_hierarchy.iptw_caches.tags.tagAccesses         1761                       # Number of tag accesses (Count)
board.cache_hierarchy.iptw_caches.tags.dataAccesses         1761                       # Number of data accesses (Count)
board.cache_hierarchy.iptw_caches.tags.power_state.pwrStateResidencyTicks::UNDEFINED 101618642137755                       # Cumulative time (in ticks) in various power states (Tick)
board.cache_hierarchy.l1dcaches.demandHits::processor.switch.core.data     45265689                       # number of demand (read+write) hits (Count)
board.cache_hierarchy.l1dcaches.demandHits::total     45265689                       # number of demand (read+write) hits (Count)
board.cache_hierarchy.l1dcaches.overallHits::processor.switch.core.data     45265713                       # number of overall hits (Count)
board.cache_hierarchy.l1dcaches.overallHits::total     45265713                       # number of overall hits (Count)
board.cache_hierarchy.l1dcaches.demandMisses::processor.switch.core.data       108634                       # number of demand (read+write) misses (Count)
board.cache_hierarchy.l1dcaches.demandMisses::total       108634                       # number of demand (read+write) misses (Count)
board.cache_hierarchy.l1dcaches.overallMisses::processor.switch.core.data       108669                       # number of overall misses (Count)
board.cache_hierarchy.l1dcaches.overallMisses::total       108669                       # number of overall misses (Count)
board.cache_hierarchy.l1dcaches.demandMissLatency::processor.switch.core.data    934902204                       # number of demand (read+write) miss ticks (Tick)
board.cache_hierarchy.l1dcaches.demandMissLatency::total    934902204                       # number of demand (read+write) miss ticks (Tick)
board.cache_hierarchy.l1dcaches.overallMissLatency::processor.switch.core.data    934902204                       # number of overall miss ticks (Tick)
board.cache_hierarchy.l1dcaches.overallMissLatency::total    934902204                       # number of overall miss ticks (Tick)
board.cache_hierarchy.l1dcaches.demandAccesses::processor.switch.core.data     45374323                       # number of demand (read+write) accesses (Count)
board.cache_hierarchy.l1dcaches.demandAccesses::total     45374323                       # number of demand (read+write) accesses (Count)
board.cache_hierarchy.l1dcaches.overallAccesses::processor.switch.core.data     45374382                       # number of overall (read+write) accesses (Count)
board.cache_hierarchy.l1dcaches.overallAccesses::total     45374382                       # number of overall (read+write) accesses (Count)
board.cache_hierarchy.l1dcaches.demandMissRate::processor.switch.core.data     0.002394                       # miss rate for demand accesses (Ratio)
board.cache_hierarchy.l1dcaches.demandMissRate::total     0.002394                       # miss rate for demand accesses (Ratio)
board.cache_hierarchy.l1dcaches.overallMissRate::processor.switch.core.data     0.002395                       # miss rate for overall accesses (Ratio)
board.cache_hierarchy.l1dcaches.overallMissRate::total     0.002395                       # miss rate for overall accesses (Ratio)
board.cache_hierarchy.l1dcaches.demandAvgMissLatency::processor.switch.core.data  8605.981590                       # average overall miss latency in ticks ((Tick/Count))
board.cache_hierarchy.l1dcaches.demandAvgMissLatency::total  8605.981590                       # average overall miss latency in ticks ((Tick/Count))
board.cache_hierarchy.l1dcaches.overallAvgMissLatency::processor.switch.core.data  8603.209784                       # average overall miss latency ((Tick/Count))
board.cache_hierarchy.l1dcaches.overallAvgMissLatency::total  8603.209784                       # average overall miss latency ((Tick/Count))
board.cache_hierarchy.l1dcaches.blockedCycles::no_mshrs            0                       # number of cycles access was blocked (Cycle)
board.cache_hierarchy.l1dcaches.blockedCycles::no_targets         1019                       # number of cycles access was blocked (Cycle)
board.cache_hierarchy.l1dcaches.blockedCauses::no_mshrs            0                       # number of times access was blocked (Count)
board.cache_hierarchy.l1dcaches.blockedCauses::no_targets           11                       # number of times access was blocked (Count)
board.cache_hierarchy.l1dcaches.avgBlocked::no_mshrs          nan                       # average number of cycles each access was blocked ((Cycle/Count))
board.cache_hierarchy.l1dcaches.avgBlocked::no_targets    92.636364                       # average number of cycles each access was blocked ((Cycle/Count))
board.cache_hierarchy.l1dcaches.writebacks::writebacks        31844                       # number of writebacks (Count)
board.cache_hierarchy.l1dcaches.writebacks::total        31844                       # number of writebacks (Count)
board.cache_hierarchy.l1dcaches.demandMshrHits::processor.switch.core.data         5588                       # number of demand (read+write) MSHR hits (Count)
board.cache_hierarchy.l1dcaches.demandMshrHits::total         5588                       # number of demand (read+write) MSHR hits (Count)
board.cache_hierarchy.l1dcaches.overallMshrHits::processor.switch.core.data         5588                       # number of overall MSHR hits (Count)
board.cache_hierarchy.l1dcaches.overallMshrHits::total         5588                       # number of overall MSHR hits (Count)
board.cache_hierarchy.l1dcaches.demandMshrMisses::processor.switch.core.data       103046                       # number of demand (read+write) MSHR misses (Count)
board.cache_hierarchy.l1dcaches.demandMshrMisses::total       103046                       # number of demand (read+write) MSHR misses (Count)
board.cache_hierarchy.l1dcaches.overallMshrMisses::cache_hierarchy.l1dcaches.prefetcher        89695                       # number of overall MSHR misses (Count)
board.cache_hierarchy.l1dcaches.overallMshrMisses::processor.switch.core.data       103081                       # number of overall MSHR misses (Count)
board.cache_hierarchy.l1dcaches.overallMshrMisses::total       192776                       # number of overall MSHR misses (Count)
board.cache_hierarchy.l1dcaches.overallMshrUncacheable::processor.switch.core.data         3206                       # number of overall MSHR uncacheable misses (Count)
board.cache_hierarchy.l1dcaches.overallMshrUncacheable::total         3206                       # number of overall MSHR uncacheable misses (Count)
board.cache_hierarchy.l1dcaches.demandMshrMissLatency::processor.switch.core.data    831413449                       # number of demand (read+write) MSHR miss ticks (Tick)
board.cache_hierarchy.l1dcaches.demandMshrMissLatency::total    831413449                       # number of demand (read+write) MSHR miss ticks (Tick)
board.cache_hierarchy.l1dcaches.overallMshrMissLatency::cache_hierarchy.l1dcaches.prefetcher   1039390554                       # number of overall MSHR miss ticks (Tick)
board.cache_hierarchy.l1dcaches.overallMshrMissLatency::processor.switch.core.data    832328661                       # number of overall MSHR miss ticks (Tick)
board.cache_hierarchy.l1dcaches.overallMshrMissLatency::total   1871719215                       # number of overall MSHR miss ticks (Tick)
board.cache_hierarchy.l1dcaches.overallMshrUncacheableLatency::processor.switch.core.data    498593350                       # number of overall MSHR uncacheable ticks (Tick)
board.cache_hierarchy.l1dcaches.overallMshrUncacheableLatency::total    498593350                       # number of overall MSHR uncacheable ticks (Tick)
board.cache_hierarchy.l1dcaches.demandMshrMissRate::processor.switch.core.data     0.002271                       # mshr miss ratio for demand accesses (Ratio)
board.cache_hierarchy.l1dcaches.demandMshrMissRate::total     0.002271                       # mshr miss ratio for demand accesses (Ratio)
board.cache_hierarchy.l1dcaches.overallMshrMissRate::cache_hierarchy.l1dcaches.prefetcher          inf                       # mshr miss ratio for overall accesses (Ratio)
board.cache_hierarchy.l1dcaches.overallMshrMissRate::processor.switch.core.data     0.002272                       # mshr miss ratio for overall accesses (Ratio)
board.cache_hierarchy.l1dcaches.overallMshrMissRate::total     0.004249                       # mshr miss ratio for overall accesses (Ratio)
board.cache_hierarchy.l1dcaches.demandAvgMshrMissLatency::processor.switch.core.data  8068.371882                       # average overall mshr miss latency ((Tick/Count))
board.cache_hierarchy.l1dcaches.demandAvgMshrMissLatency::total  8068.371882                       # average overall mshr miss latency ((Tick/Count))
board.cache_hierarchy.l1dcaches.overallAvgMshrMissLatency::cache_hierarchy.l1dcaches.prefetcher 11588.054563                       # average overall mshr miss latency ((Tick/Count))
board.cache_hierarchy.l1dcaches.overallAvgMshrMissLatency::processor.switch.core.data  8074.510928                       # average overall mshr miss latency ((Tick/Count))
board.cache_hierarchy.l1dcaches.overallAvgMshrMissLatency::total  9709.295841                       # average overall mshr miss latency ((Tick/Count))
board.cache_hierarchy.l1dcaches.overallAvgMshrUncacheableLatency::processor.switch.core.data 155518.824080                       # average overall mshr uncacheable latency ((Tick/Count))
board.cache_hierarchy.l1dcaches.overallAvgMshrUncacheableLatency::total 155518.824080                       # average overall mshr uncacheable latency ((Tick/Count))
board.cache_hierarchy.l1dcaches.replacements       192516                       # number of replacements (Count)
board.cache_hierarchy.l1dcaches.HardPFReq.mshrMisses::cache_hierarchy.l1dcaches.prefetcher        89695                       # number of HardPFReq MSHR misses (Count)
board.cache_hierarchy.l1dcaches.HardPFReq.mshrMisses::total        89695                       # number of HardPFReq MSHR misses (Count)
board.cache_hierarchy.l1dcaches.HardPFReq.mshrMissLatency::cache_hierarchy.l1dcaches.prefetcher   1039390554                       # number of HardPFReq MSHR miss ticks (Tick)
board.cache_hierarchy.l1dcaches.HardPFReq.mshrMissLatency::total   1039390554                       # number of HardPFReq MSHR miss ticks (Tick)
board.cache_hierarchy.l1dcaches.HardPFReq.mshrMissRate::cache_hierarchy.l1dcaches.prefetcher          inf                       # mshr miss rate for HardPFReq accesses (Ratio)
board.cache_hierarchy.l1dcaches.HardPFReq.mshrMissRate::total          inf                       # mshr miss rate for HardPFReq accesses (Ratio)
board.cache_hierarchy.l1dcaches.HardPFReq.avgMshrMissLatency::cache_hierarchy.l1dcaches.prefetcher 11588.054563                       # average HardPFReq mshr miss latency ((Tick/Count))
board.cache_hierarchy.l1dcaches.HardPFReq.avgMshrMissLatency::total 11588.054563                       # average HardPFReq mshr miss latency ((Tick/Count))
board.cache_hierarchy.l1dcaches.LockedRMWReadReq.hits::processor.switch.core.data         4200                       # number of LockedRMWReadReq hits (Count)
board.cache_hierarchy.l1dcaches.LockedRMWReadReq.hits::total         4200                       # number of LockedRMWReadReq hits (Count)
board.cache_hierarchy.l1dcaches.LockedRMWReadReq.misses::processor.switch.core.data            4                       # number of LockedRMWReadReq misses (Count)
board.cache_hierarchy.l1dcaches.LockedRMWReadReq.misses::total            4                       # number of LockedRMWReadReq misses (Count)
board.cache_hierarchy.l1dcaches.LockedRMWReadReq.missLatency::processor.switch.core.data       151492                       # number of LockedRMWReadReq miss ticks (Tick)
board.cache_hierarchy.l1dcaches.LockedRMWReadReq.missLatency::total       151492                       # number of LockedRMWReadReq miss ticks (Tick)
board.cache_hierarchy.l1dcaches.LockedRMWReadReq.accesses::processor.switch.core.data         4204                       # number of LockedRMWReadReq accesses(hits+misses) (Count)
board.cache_hierarchy.l1dcaches.LockedRMWReadReq.accesses::total         4204                       # number of LockedRMWReadReq accesses(hits+misses) (Count)
board.cache_hierarchy.l1dcaches.LockedRMWReadReq.missRate::processor.switch.core.data     0.000951                       # miss rate for LockedRMWReadReq accesses (Ratio)
board.cache_hierarchy.l1dcaches.LockedRMWReadReq.missRate::total     0.000951                       # miss rate for LockedRMWReadReq accesses (Ratio)
board.cache_hierarchy.l1dcaches.LockedRMWReadReq.avgMissLatency::processor.switch.core.data        37873                       # average LockedRMWReadReq miss latency ((Tick/Count))
board.cache_hierarchy.l1dcaches.LockedRMWReadReq.avgMissLatency::total        37873                       # average LockedRMWReadReq miss latency ((Tick/Count))
board.cache_hierarchy.l1dcaches.LockedRMWReadReq.mshrMisses::processor.switch.core.data            4                       # number of LockedRMWReadReq MSHR misses (Count)
board.cache_hierarchy.l1dcaches.LockedRMWReadReq.mshrMisses::total            4                       # number of LockedRMWReadReq MSHR misses (Count)
board.cache_hierarchy.l1dcaches.LockedRMWReadReq.mshrMissLatency::processor.switch.core.data     10150590                       # number of LockedRMWReadReq MSHR miss ticks (Tick)
board.cache_hierarchy.l1dcaches.LockedRMWReadReq.mshrMissLatency::total     10150590                       # number of LockedRMWReadReq MSHR miss ticks (Tick)
board.cache_hierarchy.l1dcaches.LockedRMWReadReq.mshrMissRate::processor.switch.core.data     0.000951                       # mshr miss rate for LockedRMWReadReq accesses (Ratio)
board.cache_hierarchy.l1dcaches.LockedRMWReadReq.mshrMissRate::total     0.000951                       # mshr miss rate for LockedRMWReadReq accesses (Ratio)
board.cache_hierarchy.l1dcaches.LockedRMWReadReq.avgMshrMissLatency::processor.switch.core.data 2537647.500000                       # average LockedRMWReadReq mshr miss latency ((Tick/Count))
board.cache_hierarchy.l1dcaches.LockedRMWReadReq.avgMshrMissLatency::total 2537647.500000                       # average LockedRMWReadReq mshr miss latency ((Tick/Count))
board.cache_hierarchy.l1dcaches.LockedRMWWriteReq.hits::processor.switch.core.data         4204                       # number of LockedRMWWriteReq hits (Count)
board.cache_hierarchy.l1dcaches.LockedRMWWriteReq.hits::total         4204                       # number of LockedRMWWriteReq hits (Count)
board.cache_hierarchy.l1dcaches.LockedRMWWriteReq.accesses::processor.switch.core.data         4204                       # number of LockedRMWWriteReq accesses(hits+misses) (Count)
board.cache_hierarchy.l1dcaches.LockedRMWWriteReq.accesses::total         4204                       # number of LockedRMWWriteReq accesses(hits+misses) (Count)
board.cache_hierarchy.l1dcaches.ReadReq.hits::processor.switch.core.data     36109108                       # number of ReadReq hits (Count)
board.cache_hierarchy.l1dcaches.ReadReq.hits::total     36109108                       # number of ReadReq hits (Count)
board.cache_hierarchy.l1dcaches.ReadReq.misses::processor.switch.core.data        92544                       # number of ReadReq misses (Count)
board.cache_hierarchy.l1dcaches.ReadReq.misses::total        92544                       # number of ReadReq misses (Count)
board.cache_hierarchy.l1dcaches.ReadReq.missLatency::processor.switch.core.data    812838777                       # number of ReadReq miss ticks (Tick)
board.cache_hierarchy.l1dcaches.ReadReq.missLatency::total    812838777                       # number of ReadReq miss ticks (Tick)
board.cache_hierarchy.l1dcaches.ReadReq.accesses::processor.switch.core.data     36201652                       # number of ReadReq accesses(hits+misses) (Count)
board.cache_hierarchy.l1dcaches.ReadReq.accesses::total     36201652                       # number of ReadReq accesses(hits+misses) (Count)
board.cache_hierarchy.l1dcaches.ReadReq.missRate::processor.switch.core.data     0.002556                       # miss rate for ReadReq accesses (Ratio)
board.cache_hierarchy.l1dcaches.ReadReq.missRate::total     0.002556                       # miss rate for ReadReq accesses (Ratio)
board.cache_hierarchy.l1dcaches.ReadReq.avgMissLatency::processor.switch.core.data  8783.268251                       # average ReadReq miss latency ((Tick/Count))
board.cache_hierarchy.l1dcaches.ReadReq.avgMissLatency::total  8783.268251                       # average ReadReq miss latency ((Tick/Count))
board.cache_hierarchy.l1dcaches.ReadReq.mshrHits::processor.switch.core.data         5390                       # number of ReadReq MSHR hits (Count)
board.cache_hierarchy.l1dcaches.ReadReq.mshrHits::total         5390                       # number of ReadReq MSHR hits (Count)
board.cache_hierarchy.l1dcaches.ReadReq.mshrMisses::processor.switch.core.data        87154                       # number of ReadReq MSHR misses (Count)
board.cache_hierarchy.l1dcaches.ReadReq.mshrMisses::total        87154                       # number of ReadReq MSHR misses (Count)
board.cache_hierarchy.l1dcaches.ReadReq.mshrUncacheable::processor.switch.core.data         2378                       # number of ReadReq MSHR uncacheable (Count)
board.cache_hierarchy.l1dcaches.ReadReq.mshrUncacheable::total         2378                       # number of ReadReq MSHR uncacheable (Count)
board.cache_hierarchy.l1dcaches.ReadReq.mshrMissLatency::processor.switch.core.data    716794414                       # number of ReadReq MSHR miss ticks (Tick)
board.cache_hierarchy.l1dcaches.ReadReq.mshrMissLatency::total    716794414                       # number of ReadReq MSHR miss ticks (Tick)
board.cache_hierarchy.l1dcaches.ReadReq.mshrUncacheableLatency::processor.switch.core.data    498593350                       # number of ReadReq MSHR uncacheable ticks (Tick)
board.cache_hierarchy.l1dcaches.ReadReq.mshrUncacheableLatency::total    498593350                       # number of ReadReq MSHR uncacheable ticks (Tick)
board.cache_hierarchy.l1dcaches.ReadReq.mshrMissRate::processor.switch.core.data     0.002407                       # mshr miss rate for ReadReq accesses (Ratio)
board.cache_hierarchy.l1dcaches.ReadReq.mshrMissRate::total     0.002407                       # mshr miss rate for ReadReq accesses (Ratio)
board.cache_hierarchy.l1dcaches.ReadReq.avgMshrMissLatency::processor.switch.core.data  8224.458017                       # average ReadReq mshr miss latency ((Tick/Count))
board.cache_hierarchy.l1dcaches.ReadReq.avgMshrMissLatency::total  8224.458017                       # average ReadReq mshr miss latency ((Tick/Count))
board.cache_hierarchy.l1dcaches.ReadReq.avgMshrUncacheableLatency::processor.switch.core.data 209669.196804                       # average ReadReq mshr uncacheable latency ((Tick/Count))
board.cache_hierarchy.l1dcaches.ReadReq.avgMshrUncacheableLatency::total 209669.196804                       # average ReadReq mshr uncacheable latency ((Tick/Count))
board.cache_hierarchy.l1dcaches.SoftPFReq.hits::processor.switch.core.data           24                       # number of SoftPFReq hits (Count)
board.cache_hierarchy.l1dcaches.SoftPFReq.hits::total           24                       # number of SoftPFReq hits (Count)
board.cache_hierarchy.l1dcaches.SoftPFReq.misses::processor.switch.core.data           35                       # number of SoftPFReq misses (Count)
board.cache_hierarchy.l1dcaches.SoftPFReq.misses::total           35                       # number of SoftPFReq misses (Count)
board.cache_hierarchy.l1dcaches.SoftPFReq.accesses::processor.switch.core.data           59                       # number of SoftPFReq accesses(hits+misses) (Count)
board.cache_hierarchy.l1dcaches.SoftPFReq.accesses::total           59                       # number of SoftPFReq accesses(hits+misses) (Count)
board.cache_hierarchy.l1dcaches.SoftPFReq.missRate::processor.switch.core.data     0.593220                       # miss rate for SoftPFReq accesses (Ratio)
board.cache_hierarchy.l1dcaches.SoftPFReq.missRate::total     0.593220                       # miss rate for SoftPFReq accesses (Ratio)
board.cache_hierarchy.l1dcaches.SoftPFReq.mshrMisses::processor.switch.core.data           35                       # number of SoftPFReq MSHR misses (Count)
board.cache_hierarchy.l1dcaches.SoftPFReq.mshrMisses::total           35                       # number of SoftPFReq MSHR misses (Count)
board.cache_hierarchy.l1dcaches.SoftPFReq.mshrMissLatency::processor.switch.core.data       915212                       # number of SoftPFReq MSHR miss ticks (Tick)
board.cache_hierarchy.l1dcaches.SoftPFReq.mshrMissLatency::total       915212                       # number of SoftPFReq MSHR miss ticks (Tick)
board.cache_hierarchy.l1dcaches.SoftPFReq.mshrMissRate::processor.switch.core.data     0.593220                       # mshr miss rate for SoftPFReq accesses (Ratio)
board.cache_hierarchy.l1dcaches.SoftPFReq.mshrMissRate::total     0.593220                       # mshr miss rate for SoftPFReq accesses (Ratio)
board.cache_hierarchy.l1dcaches.SoftPFReq.avgMshrMissLatency::processor.switch.core.data 26148.914286                       # average SoftPFReq mshr miss latency ((Tick/Count))
board.cache_hierarchy.l1dcaches.SoftPFReq.avgMshrMissLatency::total 26148.914286                       # average SoftPFReq mshr miss latency ((Tick/Count))
board.cache_hierarchy.l1dcaches.WriteReq.hits::processor.switch.core.data      9156581                       # number of WriteReq hits (Count)
board.cache_hierarchy.l1dcaches.WriteReq.hits::total      9156581                       # number of WriteReq hits (Count)
board.cache_hierarchy.l1dcaches.WriteReq.misses::processor.switch.core.data        16090                       # number of WriteReq misses (Count)
board.cache_hierarchy.l1dcaches.WriteReq.misses::total        16090                       # number of WriteReq misses (Count)
board.cache_hierarchy.l1dcaches.WriteReq.missLatency::processor.switch.core.data    122063427                       # number of WriteReq miss ticks (Tick)
board.cache_hierarchy.l1dcaches.WriteReq.missLatency::total    122063427                       # number of WriteReq miss ticks (Tick)
board.cache_hierarchy.l1dcaches.WriteReq.accesses::processor.switch.core.data      9172671                       # number of WriteReq accesses(hits+misses) (Count)
board.cache_hierarchy.l1dcaches.WriteReq.accesses::total      9172671                       # number of WriteReq accesses(hits+misses) (Count)
board.cache_hierarchy.l1dcaches.WriteReq.missRate::processor.switch.core.data     0.001754                       # miss rate for WriteReq accesses (Ratio)
board.cache_hierarchy.l1dcaches.WriteReq.missRate::total     0.001754                       # miss rate for WriteReq accesses (Ratio)
board.cache_hierarchy.l1dcaches.WriteReq.avgMissLatency::processor.switch.core.data  7586.291299                       # average WriteReq miss latency ((Tick/Count))
board.cache_hierarchy.l1dcaches.WriteReq.avgMissLatency::total  7586.291299                       # average WriteReq miss latency ((Tick/Count))
board.cache_hierarchy.l1dcaches.WriteReq.mshrHits::processor.switch.core.data          198                       # number of WriteReq MSHR hits (Count)
board.cache_hierarchy.l1dcaches.WriteReq.mshrHits::total          198                       # number of WriteReq MSHR hits (Count)
board.cache_hierarchy.l1dcaches.WriteReq.mshrMisses::processor.switch.core.data        15892                       # number of WriteReq MSHR misses (Count)
board.cache_hierarchy.l1dcaches.WriteReq.mshrMisses::total        15892                       # number of WriteReq MSHR misses (Count)
board.cache_hierarchy.l1dcaches.WriteReq.mshrUncacheable::processor.switch.core.data          828                       # number of WriteReq MSHR uncacheable (Count)
board.cache_hierarchy.l1dcaches.WriteReq.mshrUncacheable::total          828                       # number of WriteReq MSHR uncacheable (Count)
board.cache_hierarchy.l1dcaches.WriteReq.mshrMissLatency::processor.switch.core.data    114619035                       # number of WriteReq MSHR miss ticks (Tick)
board.cache_hierarchy.l1dcaches.WriteReq.mshrMissLatency::total    114619035                       # number of WriteReq MSHR miss ticks (Tick)
board.cache_hierarchy.l1dcaches.WriteReq.mshrMissRate::processor.switch.core.data     0.001733                       # mshr miss rate for WriteReq accesses (Ratio)
board.cache_hierarchy.l1dcaches.WriteReq.mshrMissRate::total     0.001733                       # mshr miss rate for WriteReq accesses (Ratio)
board.cache_hierarchy.l1dcaches.WriteReq.avgMshrMissLatency::processor.switch.core.data  7212.373207                       # average WriteReq mshr miss latency ((Tick/Count))
board.cache_hierarchy.l1dcaches.WriteReq.avgMshrMissLatency::total  7212.373207                       # average WriteReq mshr miss latency ((Tick/Count))
board.cache_hierarchy.l1dcaches.power_state.pwrStateResidencyTicks::UNDEFINED 101618642137755                       # Cumulative time (in ticks) in various power states (Tick)
board.cache_hierarchy.l1dcaches.prefetcher.demandMshrMisses       103046                       # demands not covered by prefetchs (Count)
board.cache_hierarchy.l1dcaches.prefetcher.pfIssued        91663                       # number of hwpf issued (Count)
board.cache_hierarchy.l1dcaches.prefetcher.pfUnused          362                       # number of HardPF blocks evicted w/o reference (Count)
board.cache_hierarchy.l1dcaches.prefetcher.pfUseful        89072                       # number of useful prefetch (Count)
board.cache_hierarchy.l1dcaches.prefetcher.pfUsefulButMiss            0                       # number of hit on prefetch but cache block is not in an usable state (Count)
board.cache_hierarchy.l1dcaches.prefetcher.accuracy     0.971733                       # accuracy of the prefetcher (Count)
board.cache_hierarchy.l1dcaches.prefetcher.coverage     0.463632                       # coverage brought by this prefetcher (Count)
board.cache_hierarchy.l1dcaches.prefetcher.pfHitInCache          648                       # number of prefetches hitting in cache (Count)
board.cache_hierarchy.l1dcaches.prefetcher.pfHitInMSHR         1317                       # number of prefetches hitting in a MSHR (Count)
board.cache_hierarchy.l1dcaches.prefetcher.pfHitInWB            3                       # number of prefetches hit in the Write Buffer (Count)
board.cache_hierarchy.l1dcaches.prefetcher.pfLate         1968                       # number of late prefetches (hitting in cache, MSHR or WB) (Count)
board.cache_hierarchy.l1dcaches.prefetcher.pfIdentified        92895                       # number of prefetch candidates identified (Count)
board.cache_hierarchy.l1dcaches.prefetcher.pfBufferHit         1035                       # number of redundant prefetches already in prefetch queue (Count)
board.cache_hierarchy.l1dcaches.prefetcher.pfInCache            0                       # number of redundant prefetches already in cache/mshr dropped (Count)
board.cache_hierarchy.l1dcaches.prefetcher.pfRemovedDemand           10                       # number of prefetches dropped due to a demand for the same address (Count)
board.cache_hierarchy.l1dcaches.prefetcher.pfRemovedFull            0                       # number of prefetches dropped due to prefetch queue size (Count)
board.cache_hierarchy.l1dcaches.prefetcher.pfSpanPage         1517                       # number of prefetches that crossed the page (Count)
board.cache_hierarchy.l1dcaches.prefetcher.pfUsefulSpanPage            0                       # number of prefetches that is useful and crossed the page (Count)
board.cache_hierarchy.l1dcaches.prefetcher.power_state.pwrStateResidencyTicks::UNDEFINED 101618642137755                       # Cumulative time (in ticks) in various power states (Tick)
board.cache_hierarchy.l1dcaches.tags.tagsInUse   248.651360                       # Average ticks per tags in use ((Tick/Count))
board.cache_hierarchy.l1dcaches.tags.totalRefs     45340654                       # Total number of references to valid blocks. (Count)
board.cache_hierarchy.l1dcaches.tags.sampledRefs       192516                       # Sample count of references to valid blocks. (Count)
board.cache_hierarchy.l1dcaches.tags.avgRefs   235.516290                       # Average number of references to valid blocks. ((Count/Count))
board.cache_hierarchy.l1dcaches.tags.warmupTick 101601354961151                       # The tick when the warmup percentage was hit. (Tick)
board.cache_hierarchy.l1dcaches.tags.occupancies::cache_hierarchy.l1dcaches.prefetcher   105.086750                       # Average occupied blocks per tick, per requestor ((Count/Tick))
board.cache_hierarchy.l1dcaches.tags.occupancies::processor.switch.core.data   143.564610                       # Average occupied blocks per tick, per requestor ((Count/Tick))
board.cache_hierarchy.l1dcaches.tags.avgOccs::cache_hierarchy.l1dcaches.prefetcher     0.410495                       # Average percentage of cache occupancy ((Ratio/Tick))
board.cache_hierarchy.l1dcaches.tags.avgOccs::processor.switch.core.data     0.560799                       # Average percentage of cache occupancy ((Ratio/Tick))
board.cache_hierarchy.l1dcaches.tags.avgOccs::total     0.971294                       # Average percentage of cache occupancy ((Ratio/Tick))
board.cache_hierarchy.l1dcaches.tags.occupanciesTaskId::1022           20                       # Occupied blocks per task id (Count)
board.cache_hierarchy.l1dcaches.tags.occupanciesTaskId::1024          236                       # Occupied blocks per task id (Count)
board.cache_hierarchy.l1dcaches.tags.ageTaskId_1022::1           20                       # Occupied blocks per task id, per block age (Count)
board.cache_hierarchy.l1dcaches.tags.ageTaskId_1024::0            7                       # Occupied blocks per task id, per block age (Count)
board.cache_hierarchy.l1dcaches.tags.ageTaskId_1024::1          208                       # Occupied blocks per task id, per block age (Count)
board.cache_hierarchy.l1dcaches.tags.ageTaskId_1024::2           20                       # Occupied blocks per task id, per block age (Count)
board.cache_hierarchy.l1dcaches.tags.ageTaskId_1024::3            1                       # Occupied blocks per task id, per block age (Count)
board.cache_hierarchy.l1dcaches.tags.ratioOccsTaskId::1022     0.078125                       # Ratio of occupied blocks and all blocks, per task id (Ratio)
board.cache_hierarchy.l1dcaches.tags.ratioOccsTaskId::1024     0.921875                       # Ratio of occupied blocks and all blocks, per task id (Ratio)
board.cache_hierarchy.l1dcaches.tags.tagAccesses    363255092                       # Number of tag accesses (Count)
board.cache_hierarchy.l1dcaches.tags.dataAccesses    363255092                       # Number of data accesses (Count)
board.cache_hierarchy.l1dcaches.tags.power_state.pwrStateResidencyTicks::UNDEFINED 101618642137755                       # Cumulative time (in ticks) in various power states (Tick)
board.cache_hierarchy.l1icaches.demandHits::processor.switch.core.inst     18183974                       # number of demand (read+write) hits (Count)
board.cache_hierarchy.l1icaches.demandHits::total     18183974                       # number of demand (read+write) hits (Count)
board.cache_hierarchy.l1icaches.overallHits::processor.switch.core.inst     18183974                       # number of overall hits (Count)
board.cache_hierarchy.l1icaches.overallHits::total     18183974                       # number of overall hits (Count)
board.cache_hierarchy.l1icaches.demandMisses::processor.switch.core.inst        47439                       # number of demand (read+write) misses (Count)
board.cache_hierarchy.l1icaches.demandMisses::total        47439                       # number of demand (read+write) misses (Count)
board.cache_hierarchy.l1icaches.overallMisses::processor.switch.core.inst        47439                       # number of overall misses (Count)
board.cache_hierarchy.l1icaches.overallMisses::total        47439                       # number of overall misses (Count)
board.cache_hierarchy.l1icaches.demandMissLatency::processor.switch.core.inst    599010010                       # number of demand (read+write) miss ticks (Tick)
board.cache_hierarchy.l1icaches.demandMissLatency::total    599010010                       # number of demand (read+write) miss ticks (Tick)
board.cache_hierarchy.l1icaches.overallMissLatency::processor.switch.core.inst    599010010                       # number of overall miss ticks (Tick)
board.cache_hierarchy.l1icaches.overallMissLatency::total    599010010                       # number of overall miss ticks (Tick)
board.cache_hierarchy.l1icaches.demandAccesses::processor.switch.core.inst     18231413                       # number of demand (read+write) accesses (Count)
board.cache_hierarchy.l1icaches.demandAccesses::total     18231413                       # number of demand (read+write) accesses (Count)
board.cache_hierarchy.l1icaches.overallAccesses::processor.switch.core.inst     18231413                       # number of overall (read+write) accesses (Count)
board.cache_hierarchy.l1icaches.overallAccesses::total     18231413                       # number of overall (read+write) accesses (Count)
board.cache_hierarchy.l1icaches.demandMissRate::processor.switch.core.inst     0.002602                       # miss rate for demand accesses (Ratio)
board.cache_hierarchy.l1icaches.demandMissRate::total     0.002602                       # miss rate for demand accesses (Ratio)
board.cache_hierarchy.l1icaches.overallMissRate::processor.switch.core.inst     0.002602                       # miss rate for overall accesses (Ratio)
board.cache_hierarchy.l1icaches.overallMissRate::total     0.002602                       # miss rate for overall accesses (Ratio)
board.cache_hierarchy.l1icaches.demandAvgMissLatency::processor.switch.core.inst 12626.952718                       # average overall miss latency in ticks ((Tick/Count))
board.cache_hierarchy.l1icaches.demandAvgMissLatency::total 12626.952718                       # average overall miss latency in ticks ((Tick/Count))
board.cache_hierarchy.l1icaches.overallAvgMissLatency::processor.switch.core.inst 12626.952718                       # average overall miss latency ((Tick/Count))
board.cache_hierarchy.l1icaches.overallAvgMissLatency::total 12626.952718                       # average overall miss latency ((Tick/Count))
board.cache_hierarchy.l1icaches.blockedCycles::no_mshrs            0                       # number of cycles access was blocked (Cycle)
board.cache_hierarchy.l1icaches.blockedCycles::no_targets            0                       # number of cycles access was blocked (Cycle)
board.cache_hierarchy.l1icaches.blockedCauses::no_mshrs            0                       # number of times access was blocked (Count)
board.cache_hierarchy.l1icaches.blockedCauses::no_targets            0                       # number of times access was blocked (Count)
board.cache_hierarchy.l1icaches.avgBlocked::no_mshrs          nan                       # average number of cycles each access was blocked ((Cycle/Count))
board.cache_hierarchy.l1icaches.avgBlocked::no_targets          nan                       # average number of cycles each access was blocked ((Cycle/Count))
board.cache_hierarchy.l1icaches.demandMshrHits::processor.switch.core.inst         3546                       # number of demand (read+write) MSHR hits (Count)
board.cache_hierarchy.l1icaches.demandMshrHits::total         3546                       # number of demand (read+write) MSHR hits (Count)
board.cache_hierarchy.l1icaches.overallMshrHits::processor.switch.core.inst         3546                       # number of overall MSHR hits (Count)
board.cache_hierarchy.l1icaches.overallMshrHits::total         3546                       # number of overall MSHR hits (Count)
board.cache_hierarchy.l1icaches.demandMshrMisses::processor.switch.core.inst        43893                       # number of demand (read+write) MSHR misses (Count)
board.cache_hierarchy.l1icaches.demandMshrMisses::total        43893                       # number of demand (read+write) MSHR misses (Count)
board.cache_hierarchy.l1icaches.overallMshrMisses::processor.switch.core.inst        43893                       # number of overall MSHR misses (Count)
board.cache_hierarchy.l1icaches.overallMshrMisses::total        43893                       # number of overall MSHR misses (Count)
board.cache_hierarchy.l1icaches.demandMshrMissLatency::processor.switch.core.inst    504976672                       # number of demand (read+write) MSHR miss ticks (Tick)
board.cache_hierarchy.l1icaches.demandMshrMissLatency::total    504976672                       # number of demand (read+write) MSHR miss ticks (Tick)
board.cache_hierarchy.l1icaches.overallMshrMissLatency::processor.switch.core.inst    504976672                       # number of overall MSHR miss ticks (Tick)
board.cache_hierarchy.l1icaches.overallMshrMissLatency::total    504976672                       # number of overall MSHR miss ticks (Tick)
board.cache_hierarchy.l1icaches.demandMshrMissRate::processor.switch.core.inst     0.002408                       # mshr miss ratio for demand accesses (Ratio)
board.cache_hierarchy.l1icaches.demandMshrMissRate::total     0.002408                       # mshr miss ratio for demand accesses (Ratio)
board.cache_hierarchy.l1icaches.overallMshrMissRate::processor.switch.core.inst     0.002408                       # mshr miss ratio for overall accesses (Ratio)
board.cache_hierarchy.l1icaches.overallMshrMissRate::total     0.002408                       # mshr miss ratio for overall accesses (Ratio)
board.cache_hierarchy.l1icaches.demandAvgMshrMissLatency::processor.switch.core.inst 11504.719933                       # average overall mshr miss latency ((Tick/Count))
board.cache_hierarchy.l1icaches.demandAvgMshrMissLatency::total 11504.719933                       # average overall mshr miss latency ((Tick/Count))
board.cache_hierarchy.l1icaches.overallAvgMshrMissLatency::processor.switch.core.inst 11504.719933                       # average overall mshr miss latency ((Tick/Count))
board.cache_hierarchy.l1icaches.overallAvgMshrMissLatency::total 11504.719933                       # average overall mshr miss latency ((Tick/Count))
board.cache_hierarchy.l1icaches.replacements        43637                       # number of replacements (Count)
board.cache_hierarchy.l1icaches.ReadReq.hits::processor.switch.core.inst     18183974                       # number of ReadReq hits (Count)
[...]
board.processor.switch.core.fetch.nisnDist::2       994235      1.82%     25.91% # Number of instructions fetched each cycle (Total) (Count)
board.processor.switch.core.fetch.nisnDist::3      4570660      8.38%     34.29% # Number of instructions fetched each cycle (Total) (Count)
board.processor.switch.core.fetch.nisnDist::4      1598858      2.93%     37.22% # Number of instructions fetched each cycle (Total) (Count)
board.processor.switch.core.fetch.nisnDist::5      2701082      4.95%     42.17% # Number of instructions fetched each cycle (Total) (Count)
board.processor.switch.core.fetch.nisnDist::6      1861027      3.41%     45.58% # Number of instructions fetched each cycle (Total) (Count)
board.processor.switch.core.fetch.nisnDist::7      3645863      6.68%     52.26% # Number of instructions fetched each cycle (Total) (Count)
board.processor.switch.core.fetch.nisnDist::8     26050974     47.74%    100.00% # Number of instructions fetched each cycle (Total) (Count)
board.processor.switch.core.fetch.nisnDist::overflows            0      0.00%    100.00% # Number of instructions fetched each cycle (Total) (Count)
board.processor.switch.core.fetch.nisnDist::min_value            0                       # Number of instructions fetched each cycle (Total) (Count)
board.processor.switch.core.fetch.nisnDist::max_value            8                       # Number of instructions fetched each cycle (Total) (Count)
board.processor.switch.core.fetch.nisnDist::total     54567759                       # Number of instructions fetched each cycle (Total) (Count)
board.processor.switch.core.fetchStats0.numInsts    152862383                       # Number of instructions fetched (thread level) (Count)
board.processor.switch.core.fetchStats0.numOps            0                       # Number of ops (including micro ops) fetched (thread level) (Count)
board.processor.switch.core.fetchStats0.fetchRate     2.767725                       # Number of inst fetches per cycle ((Count/Cycle))
board.processor.switch.core.fetchStats0.numBranches     12436572                       # Number of branches fetched (Count)
board.processor.switch.core.fetchStats0.branchRate     0.225176                       # Number of branch fetches per cycle (Ratio)
board.processor.switch.core.fetchStats0.icacheStallCycles       851829                       # ICache total stall cycles (Cycle)
board.processor.switch.core.fetchStats0.numFetchSuspends            0                       # Number of times Execute suspended instruction fetching (Count)
board.processor.switch.core.iew.idleCycles            0                       # Number of cycles IEW is idle (Cycle)
board.processor.switch.core.iew.squashCycles       175182                       # Number of cycles IEW is squashing (Cycle)
board.processor.switch.core.iew.blockCycles      2461394                       # Number of cycles IEW is blocking (Cycle)
board.processor.switch.core.iew.unblockCycles        16374                       # Number of cycles IEW is unblocking (Cycle)
board.processor.switch.core.iew.dispatchedInsts    276906503                       # Number of instructions dispatched to IQ (Count)
board.processor.switch.core.iew.dispSquashedInsts         1657                       # Number of squashed instructions skipped by dispatch (Count)
board.processor.switch.core.iew.dispLoadInsts     42054966                       # Number of dispatched load instructions (Count)
board.processor.switch.core.iew.dispStoreInsts      9738787                       # Number of dispatched store instructions (Count)
board.processor.switch.core.iew.dispNonSpecInsts        13715                       # Number of dispatched non-speculative instructions (Count)
board.processor.switch.core.iew.iqFullEvents        12869                       # Number of times the IQ has become full, causing a stall (Count)
board.processor.switch.core.iew.lsqFullEvents         1151                       # Number of times the LSQ has become full, causing a stall (Count)
board.processor.switch.core.iew.memOrderViolationEvents         4143                       # Number of memory order violations (Count)
board.processor.switch.core.iew.predictedTakenIncorrect        82237                       # Number of branches that were predicted taken incorrectly (Count)
board.processor.switch.core.iew.predictedNotTakenIncorrect        94419                       # Number of branches that were predicted not taken incorrectly (Count)
board.processor.switch.core.iew.branchMispredicts       176656                       # Number of branch mispredicts detected at execute (Count)
board.processor.switch.core.iew.instsToCommit    271715109                       # Cumulative count of insts sent to commit (Count)
board.processor.switch.core.iew.writebackCount    271584775                       # Cumulative count of insts written-back (Count)
board.processor.switch.core.iew.producerInst    191508166                       # Number of instructions producing a value (Count)
board.processor.switch.core.iew.consumerInst    309038984                       # Number of instructions consuming a value (Count)
board.processor.switch.core.iew.wbRate       4.917311                       # Insts written-back per cycle ((Count/Cycle))
board.processor.switch.core.iew.wbFanout     0.619689                       # Average fanout of values written-back ((Count/Count))
board.processor.switch.core.lsq0.forwLoads      5207706                       # Number of loads that had data forwarded from stores (Count)
board.processor.switch.core.lsq0.squashedLoads      2143746                       # Number of loads squashed (Count)
board.processor.switch.core.lsq0.ignoredResponses          119                       # Number of memory responses ignored because the instruction is squashed (Count)
board.processor.switch.core.lsq0.memOrderViolation         4143                       # Number of memory ordering violations (Count)
board.processor.switch.core.lsq0.squashedStores       561427                       # Number of stores squashed (Count)
board.processor.switch.core.lsq0.rescheduledLoads      2300533                       # Number of loads that were rescheduled (Count)
board.processor.switch.core.lsq0.blockedByCache           10                       # Number of times an access to memory failed due to the cache being blocked (Count)
board.processor.switch.core.lsq0.loadToUse::samples     39911164                       # Distribution of cycle latency between the first time a load is issued and its completion (Unspecified)
board.processor.switch.core.lsq0.loadToUse::mean     2.975672                       # Distribution of cycle latency between the first time a load is issued and its completion (Unspecified)
board.processor.switch.core.lsq0.loadToUse::stdev     6.176013                       # Distribution of cycle latency between the first time a load is issued and its completion (Unspecified)
board.processor.switch.core.lsq0.loadToUse::0-9     38725198     97.03%     97.03% # Distribution of cycle latency between the first time a load is issued and its completion (Unspecified)
board.processor.switch.core.lsq0.loadToUse::10-19      1018809      2.55%     99.58% # Distribution of cycle latency between the first time a load is issued and its completion (Unspecified)
board.processor.switch.core.lsq0.loadToUse::20-29       148754      0.37%     99.95% # Distribution of cycle latency between the first time a load is issued and its completion (Unspecified)
board.processor.switch.core.lsq0.loadToUse::30-39         2371      0.01%     99.96% # Distribution of cycle latency between the first time a load is issued and its completion (Unspecified)
board.processor.switch.core.lsq0.loadToUse::40-49          358      0.00%     99.96% # Distribution of cycle latency between the first time a load is issued and its completion (Unspecified)
board.processor.switch.core.lsq0.loadToUse::50-59           40      0.00%     99.96% # Distribution of cycle latency between the first time a load is issued and its completion (Unspecified)
board.processor.switch.core.lsq0.loadToUse::60-69            6      0.00%     99.96% # Distribution of cycle latency between the first time a load is issued and its completion (Unspecified)
board.processor.switch.core.lsq0.loadToUse::70-79           23      0.00%     99.96% # Distribution of cycle latency between the first time a load is issued and its completion (Unspecified)
board.processor.switch.core.lsq0.loadToUse::80-89           23      0.00%     99.96% # Distribution of cycle latency between the first time a load is issued and its completion (Unspecified)
board.processor.switch.core.lsq0.loadToUse::90-99           23      0.00%     99.96% # Distribution of cycle latency between the first time a load is issued and its completion (Unspecified)
board.processor.switch.core.lsq0.loadToUse::100-109          142      0.00%     99.96% # Distribution of cycle latency between the first time a load is issued and its completion (Unspecified)
board.processor.switch.core.lsq0.loadToUse::110-119         1700      0.00%     99.97% # Distribution of cycle latency between the first time a load is issued and its completion (Unspecified)
board.processor.switch.core.lsq0.loadToUse::120-129         6053      0.02%     99.98% # Distribution of cycle latency between the first time a load is issued and its completion (Unspecified)
board.processor.switch.core.lsq0.loadToUse::130-139         3117      0.01%     99.99% # Distribution of cycle latency between the first time a load is issued and its completion (Unspecified)
board.processor.switch.core.lsq0.loadToUse::140-149         1254      0.00%     99.99% # Distribution of cycle latency between the first time a load is issued and its completion (Unspecified)
board.processor.switch.core.lsq0.loadToUse::150-159          411      0.00%     99.99% # Distribution of cycle latency between the first time a load is issued and its completion (Unspecified)
board.processor.switch.core.lsq0.loadToUse::160-169          181      0.00%     99.99% # Distribution of cycle latency between the first time a load is issued and its completion (Unspecified)
board.processor.switch.core.lsq0.loadToUse::170-179           94      0.00%     99.99% # Distribution of cycle latency between the first time a load is issued and its completion (Unspecified)
board.processor.switch.core.lsq0.loadToUse::180-189           45      0.00%     99.99% # Distribution of cycle latency between the first time a load is issued and its completion (Unspecified)
board.processor.switch.core.lsq0.loadToUse::190-199           11      0.00%     99.99% # Distribution of cycle latency between the first time a load is issued and its completion (Unspecified)
board.processor.switch.core.lsq0.loadToUse::200-209            1      0.00%     99.99% # Distribution of cycle latency between the first time a load is issued and its completion (Unspecified)
board.processor.switch.core.lsq0.loadToUse::210-219            7      0.00%     99.99% # Distribution of cycle latency between the first time a load is issued and its completion (Unspecified)
board.processor.switch.core.lsq0.loadToUse::220-229            5      0.00%     99.99% # Distribution of cycle latency between the first time a load is issued and its completion (Unspecified)
board.processor.switch.core.lsq0.loadToUse::230-239            3      0.00%     99.99% # Distribution of cycle latency between the first time a load is issued and its completion (Unspecified)
board.processor.switch.core.lsq0.loadToUse::240-249           36      0.00%     99.99% # Distribution of cycle latency between the first time a load is issued and its completion (Unspecified)
board.processor.switch.core.lsq0.loadToUse::250-259           36      0.00%     99.99% # Distribution of cycle latency between the first time a load is issued and its completion (Unspecified)
board.processor.switch.core.lsq0.loadToUse::260-269           19      0.00%     99.99% # Distribution of cycle latency between the first time a load is issued and its completion (Unspecified)
board.processor.switch.core.lsq0.loadToUse::270-279           11      0.00%     99.99% # Distribution of cycle latency between the first time a load is issued and its completion (Unspecified)
board.processor.switch.core.lsq0.loadToUse::280-289            4      0.00%     99.99% # Distribution of cycle latency between the first time a load is issued and its completion (Unspecified)
board.processor.switch.core.lsq0.loadToUse::290-299            2      0.00%     99.99% # Distribution of cycle latency between the first time a load is issued and its completion (Unspecified)
board.processor.switch.core.lsq0.loadToUse::overflows         2427      0.01%    100.00% # Distribution of cycle latency between the first time a load is issued and its completion (Unspecified)
board.processor.switch.core.lsq0.loadToUse::min_value            2                       # Distribution of cycle latency between the first time a load is issued and its completion (Unspecified)
board.processor.switch.core.lsq0.loadToUse::max_value          686                       # Distribution of cycle latency between the first time a load is issued and its completion (Unspecified)
board.processor.switch.core.lsq0.loadToUse::total     39911164                       # Distribution of cycle latency between the first time a load is issued and its completion (Unspecified)
board.processor.switch.core.mmu.dtb.rdAccesses     43715473                       # TLB accesses on read requests (Count)
board.processor.switch.core.mmu.dtb.wrAccesses      9403315                       # TLB accesses on write requests (Count)
board.processor.switch.core.mmu.dtb.rdMisses         1220                       # TLB misses on read requests (Count)
board.processor.switch.core.mmu.dtb.wrMisses          304                       # TLB misses on write requests (Count)
board.processor.switch.core.mmu.dtb.walker.power_state.pwrStateResidencyTicks::UNDEFINED 101618642137755                       # Cumulative time (in ticks) in various power states (Tick)
board.processor.switch.core.mmu.itb.rdAccesses            0                       # TLB accesses on read requests (Count)
board.processor.switch.core.mmu.itb.wrAccesses     18232014                       # TLB accesses on write requests (Count)
board.processor.switch.core.mmu.itb.rdMisses            0                       # TLB misses on read requests (Count)
board.processor.switch.core.mmu.itb.wrMisses          138                       # TLB misses on write requests (Count)
board.processor.switch.core.mmu.itb.walker.power_state.pwrStateResidencyTicks::UNDEFINED 101618642137755                       # Cumulative time (in ticks) in various power states (Tick)
board.processor.switch.core.power_state.numTransitions            2                       # Number of power state transitions (Count)
board.processor.switch.core.power_state.ticksClkGated::samples            1                       # Distribution of time spent in the clock gated state (Tick)
board.processor.switch.core.power_state.ticksClkGated::mean       273814                       # Distribution of time spent in the clock gated state (Tick)
board.processor.switch.core.power_state.ticksClkGated::1000-5e+10            1    100.00%    100.00% # Distribution of time spent in the clock gated state (Tick)
board.processor.switch.core.power_state.ticksClkGated::min_value       273814                       # Distribution of time spent in the clock gated state (Tick)
board.processor.switch.core.power_state.ticksClkGated::max_value       273814                       # Distribution of time spent in the clock gated state (Tick)
board.processor.switch.core.power_state.ticksClkGated::total            1                       # Distribution of time spent in the clock gated state (Tick)
board.processor.switch.core.power_state.pwrStateResidencyTicks::ON  16393126595                       # Cumulative time (in ticks) in various power states (Tick)
board.processor.switch.core.power_state.pwrStateResidencyTicks::CLK_GATED       273814                       # Cumulative time (in ticks) in various power states (Tick)
board.processor.switch.core.power_state.pwrStateResidencyTicks::OFF 101602248737346                       # Cumulative time (in ticks) in various power states (Tick)
board.processor.switch.core.rename.squashCycles       175182                       # Number of cycles rename is squashing (Cycle)
board.processor.switch.core.rename.idleCycles      6027557                       # Number of cycles rename is idle (Cycle)
board.processor.switch.core.rename.blockCycles      2728444                       # Number of cycles rename is blocking (Cycle)
board.processor.switch.core.rename.serializeStallCycles      1875368                       # count of cycles rename stalled for serializing inst (Cycle)
board.processor.switch.core.rename.runCycles     37605868                       # Number of cycles rename is running (Cycle)
board.processor.switch.core.rename.unblockCycles      6155340                       # Number of cycles rename is unblocking (Cycle)
board.processor.switch.core.rename.renamedInsts    278710858                       # Number of instructions processed by rename (Count)
board.processor.switch.core.rename.ROBFullEvents         7795                       # Number of times rename has blocked due to ROB full (Count)
board.processor.switch.core.rename.IQFullEvents      4396985                       # Number of times rename has blocked due to IQ full (Count)
board.processor.switch.core.rename.LQFullEvents         1511                       # Number of times rename has blocked due to LQ full (Count)
board.processor.switch.core.rename.SQFullEvents        65908                       # Number of times rename has blocked due to SQ full (Count)
board.processor.switch.core.rename.renamedOperands    337733322                       # Number of destination operands rename has renamed (Count)
board.processor.switch.core.rename.lookups    674949925                       # Number of register rename lookups that rename has made (Count)
board.processor.switch.core.rename.intLookups    141652937                       # Number of integer rename lookups (Count)
board.processor.switch.core.rename.fpLookups    267937110                       # Number of floating rename lookups (Count)
board.processor.switch.core.rename.committedMaps    318158732                       # Number of HB maps that are committed (Count)
board.processor.switch.core.rename.undoneMaps     19574551                       # Number of HB maps that are undone due to squashing (Count)
board.processor.switch.core.rename.serializing        12478                       # count of serializing insts renamed (Count)
board.processor.switch.core.rename.tempSerializing        12535                       # count of temporary serializing insts renamed (Count)
board.processor.switch.core.rename.skidInsts     18039656                       # count of insts added to the skid buffer (Count)
board.processor.switch.core.rob.reads       302999496                       # The number of ROB reads (Count)
board.processor.switch.core.rob.writes      555611390                       # The number of ROB writes (Count)
board.processor.switch.core.thread_0.numInsts    142338703                       # Number of Instructions committed (Count)
board.processor.switch.core.thread_0.numOps    263178039                       # Number of Ops committed (Count)
board.processor.switch.core.thread_0.numMemRefs            0                       # Number of Memory References (Count)
board.workload.inst.arm                             0                       # number of arm instructions executed (Count)
board.workload.inst.quiesce                         0                       # number of quiesce instructions executed (Count)

---------- End Simulation Statistics   ----------
