
---------- Begin Simulation Statistics ----------
simSeconds                                   0.266301                       # Number of seconds simulated (Second)
simTicks                                 266300774035                       # Number of ticks simulated (Tick)
finalTick                                101909203742736                       # Number of ticks from beginning of simulation (restored from checkpoints and never reset) (Tick)
simFreq                                  1000000000000                       # The number of ticks per simulated second ((Tick/Second))
hostSeconds                                   2535.89                       # Real time elapsed on the host (Second)
hostTickRate                                105012603                       # The number of ticks simulated per host second (ticks/s) ((Tick/Second))
hostMemory                                    4590448                       # Number of bytes of host memory used (Byte)
simInsts                                   5927217167                       # Number of instructions simulated (Count)
simOps                                     6443401028                       # Number of ops (including micro ops) simulated (Count)
hostInstRate                                  2337329                       # Simulator instruction rate (inst/s) ((Count/Second))
hostOpRate                                    2540880                       # Simulator op (including micro ops) rate (op/s) ((Count/Second))
board.apicbridge.power_state.pwrStateResidencyTicks::UNDEFINED 101909203742736                       # Cumulative time (in ticks) in various power states (Tick)
board.bridge.power_state.pwrStateResidencyTicks::UNDEFINED 101909203742736                       # Cumulative time (in ticks) in various power states (Tick)
board.cache_hierarchy.dptw_caches.demandHits::processor.switch.core.mmu.dtb.walker      4346558                       # number of demand (read+write) hits (Count)
board.cache_hierarchy.dptw_caches.demandHits::total      4346558                       # number of demand (read+write) hits (Count)
board.cache_hierarchy.dptw_caches.overallHits::processor.switch.core.mmu.dtb.walker      4346558                       # number of overall hits (Count)
board.cache_hierarchy.dptw_caches.overallHits::total      4346558                       # number of overall hits (Count)
board.cache_hierarchy.dptw_caches.demandMisses::processor.switch.core.mmu.dtb.walker        25811                       # number of demand (read+write) misses (Count)
board.cache_hierarchy.dptw_caches.demandMisses::total        25811                       # number of demand (read+write) misses (Count)
board.cache_hierarchy.dptw_caches.overallMisses::processor.switch.core.mmu.dtb.walker        25811                       # number of overall misses (Count)
board.cache_hierarchy.dptw_caches.overallMisses::total        25811                       # number of overall misses (Count)
board.cache_hierarchy.dptw_caches.demandMissLatency::processor.switch.core.mmu.dtb.walker    615604644                       # number of demand (read+write) miss ticks (Tick)
board.cache_hierarchy.dptw_caches.demandMissLatency::total    615604644                       # number of demand (read+write) miss ticks (Tick)
board.cache_hierarchy.dptw_caches.overallMissLatency::processor.switch.core.mmu.dtb.walker    615604644                       # number of overall miss ticks (Tick)
board.cache_hierarchy.dptw_caches.overallMissLatency::total    615604644                       # number of overall miss ticks (Tick)
board.cache_hierarchy.dptw_caches.demandAccesses::processor.switch.core.mmu.dtb.walker      4372369                       # number of demand (read+write) accesses (Count)
board.cache_hierarchy.dptw_caches.demandAccesses::total      4372369                       # number of demand (read+write) accesses (Count)
board.cache_hierarchy.dptw_caches.overallAccesses::processor.switch.core.mmu.dtb.walker      4372369                       # number of overall (read+write) accesses (Count)
board.cache_hierarchy.dptw_caches.overallAccesses::total      4372369                       # number of overall (read+write) accesses (Count)
board.cache_hierarchy.dptw_caches.demandMissRate::processor.switch.core.mmu.dtb.walker     0.005903                       # miss rate for demand accesses (Ratio)
board.cache_hierarchy.dptw_caches.demandMissRate::total     0.005903                       # miss rate for demand accesses (Ratio)
board.cache_hierarchy.dptw_caches.overallMissRate::processor.switch.core.mmu.dtb.walker     0.005903                       # miss rate for overall accesses (Ratio)
board.cache_hierarchy.dptw_caches.overallMissRate::total     0.005903                       # miss rate for overall accesses (Ratio)
board.cache_hierarchy.dptw_caches.demandAvgMissLatency::processor.switch.core.mmu.dtb.walker 23850.476309                       # average overall miss latency in ticks ((Tick/Count))
board.cache_hierarchy.dptw_caches.demandAvgMissLatency::total 23850.476309                       # average overall miss latency in ticks ((Tick/Count))
board.cache_hierarchy.dptw_caches.overallAvgMissLatency::processor.switch.core.mmu.dtb.walker 23850.476309                       # average overall miss latency ((Tick/Count))
board.cache_hierarchy.dptw_caches.overallAvgMissLatency::total 23850.476309                       # average overall miss latency ((Tick/Count))
board.cache_hierarchy.dptw_caches.blockedCycles::no_mshrs            0                       # number of cycles access was blocked (Cycle)
board.cache_hierarchy.dptw_caches.blockedCycles::no_targets            0                       # number of cycles access was blocked (Cycle)
board.cache_hierarchy.dptw_caches.blockedCauses::no_mshrs            0                       # number of times access was blocked (Count)
board.cache_hierarchy.dptw_caches.blockedCauses::no_targets            0                       # number of times access was blocked (Count)
board.cache_hierarchy.dptw_caches.avgBlocked::no_mshrs          nan                       # average number of cycles each access was blocked ((Cycle/Count))
board.cache_hierarchy.dptw_caches.avgBlocked::no_targets          nan                       # average number of cycles each access was blocked ((Cycle/Count))
board.cache_hierarchy.dptw_caches.writebacks::writebacks            6                       # number of writebacks (Count)
board.cache_hierarchy.dptw_caches.writebacks::total            6                       # number of writebacks (Count)
board.cache_hierarchy.dptw_caches.demandMshrMisses::processor.switch.core.mmu.dtb.walker        25811                       # number of demand (read+write) MSHR misses (Count)
board.cache_hierarchy.dptw_caches.demandMshrMisses::total        25811                       # number of demand (read+write) MSHR misses (Count)
board.cache_hierarchy.dptw_caches.overallMshrMisses::processor.switch.core.mmu.dtb.walker        25811                       # number of overall MSHR misses (Count)
board.cache_hierarchy.dptw_caches.overallMshrMisses::total        25811                       # number of overall MSHR misses (Count)
board.cache_hierarchy.dptw_caches.demandMshrMissLatency::processor.switch.core.mmu.dtb.walker    607525801                       # number of demand (read+write) MSHR miss ticks (Tick)
board.cache_hierarchy.dptw_caches.demandMshrMissLatency::total    607525801                       # number of demand (read+write) MSHR miss ticks (Tick)
board.cache_hierarchy.dptw_caches.overallMshrMissLatency::processor.switch.core.mmu.dtb.walker    607525801                       # number of overall MSHR miss ticks (Tick)
board.cache_hierarchy.dptw_caches.overallMshrMissLatency::total    607525801                       # number of overall MSHR miss ticks (Tick)
board.cache_hierarchy.dptw_caches.demandMshrMissRate::processor.switch.core.mmu.dtb.walker     0.005903                       # mshr miss ratio for demand accesses (Ratio)
board.cache_hierarchy.dptw_caches.demandMshrMissRate::total     0.005903                       # mshr miss ratio for demand accesses (Ratio)
board.cache_hierarchy.dptw_caches.overallMshrMissRate::processor.switch.core.mmu.dtb.walker     0.005903                       # mshr miss ratio for overall accesses (Ratio)
board.cache_hierarchy.dptw_caches.overallMshrMissRate::total     0.005903                       # mshr miss ratio for overall accesses (Ratio)
board.cache_hierarchy.dptw_caches.demandAvgMshrMissLatency::processor.switch.core.mmu.dtb.walker 23537.476309                       # average overall mshr miss latency ((Tick/Count))
board.cache_hierarchy.dptw_caches.demandAvgMshrMissLatency::total 23537.476309                       # average overall mshr miss latency ((Tick/Count))
board.cache_hierarchy.dptw_caches.overallAvgMshrMissLatency::processor.switch.core.mmu.dtb.walker 23537.476309                       # average overall mshr miss latency ((Tick/Count))
board.cache_hierarchy.dptw_caches.overallAvgMshrMissLatency::total 23537.476309                       # average overall mshr miss latency ((Tick/Count))
board.cache_hierarchy.dptw_caches.replacements        24185                       # number of replacements (Count)
board.cache_hierarchy.dptw_caches.ReadReq.hits::processor.switch.core.mmu.dtb.walker      4346558                       # number of ReadReq hits (Count)
board.cache_hierarchy.dptw_caches.ReadReq.hits::total      4346558                       # number of ReadReq hits (Count)
board.cache_hierarchy.dptw_caches.ReadReq.misses::processor.switch.core.mmu.dtb.walker        25811                       # number of ReadReq misses (Count)
board.cache_hierarchy.dptw_caches.ReadReq.misses::total        25811                       # number of ReadReq misses (Count)
board.cache_hierarchy.dptw_caches.ReadReq.missLatency::processor.switch.core.mmu.dtb.walker    615604644                       # number of ReadReq miss ticks (Tick)
board.cache_hierarchy.dptw_caches.ReadReq.missLatency::total    615604644                       # number of ReadReq miss ticks (Tick)
board.cache_hierarchy.dptw_caches.ReadReq.accesses::processor.switch.core.mmu.dtb.walker      4372369                       # number of ReadReq accesses(hits+misses) (Count)
board.cache_hierarchy.dptw_caches.ReadReq.accesses::total      4372369                       # number of ReadReq accesses(hits+misses) (Count)
board.cache_hierarchy.dptw_caches.ReadReq.missRate::processor.switch.core.mmu.dtb.walker     0.005903                       # miss rate for ReadReq accesses (Ratio)
board.cache_hierarchy.dptw_caches.ReadReq.missRate::total     0.005903                       # miss rate for ReadReq accesses (Ratio)
board.cache_hierarchy.dptw_caches.ReadReq.avgMissLatency::processor.switch.core.mmu.dtb.walker 23850.476309                       # average ReadReq miss latency ((Tick/Count))
board.cache_hierarchy.dptw_caches.ReadReq.avgMissLatency::total 23850.476309                       # average ReadReq miss latency ((Tick/Count))
board.cache_hierarchy.dptw_caches.ReadReq.mshrMisses::processor.switch.core.mmu.dtb.walker        25811                       # number of ReadReq MSHR misses (Count)
board.cache_hierarchy.dptw_caches.ReadReq.mshrMisses::total        25811                       # number of ReadReq MSHR misses (Count)
board.cache_hierarchy.dptw_caches.ReadReq.mshrMissLatency::processor.switch.core.mmu.dtb.walker    607525801                       # number of ReadReq MSHR miss ticks (Tick)
board.cache_hierarchy.dptw_caches.ReadReq.mshrMissLatency::total    607525801                       # number of ReadReq MSHR miss ticks (Tick)
board.cache_hierarchy.dptw_caches.ReadReq.mshrMissRate::processor.switch.core.mmu.dtb.walker     0.005903                       # mshr miss rate for ReadReq accesses (Ratio)
board.cache_hierarchy.dptw_caches.ReadReq.mshrMissRate::total     0.005903                       # mshr miss rate for ReadReq accesses (Ratio)
board.cache_hierarchy.dptw_caches.ReadReq.avgMshrMissLatency::processor.switch.core.mmu.dtb.walker 23537.476309                       # average ReadReq mshr miss latency ((Tick/Count))
board.cache_hierarchy.dptw_caches.ReadReq.avgMshrMissLatency::total 23537.476309                       # average ReadReq mshr miss latency ((Tick/Count))
board.cache_hierarchy.dptw_caches.power_state.pwrStateResidencyTicks::UNDEFINED 101909203742736                       # Cumulative time (in ticks) in various power states (Tick)
board.cache_hierarchy.dptw_caches.tags.tagsInUse   111.207052                       # Average ticks per tags in use ((Tick/Count))
board.cache_hierarchy.dptw_caches.tags.totalRefs      4367947                       # Total number of references to valid blocks. (Count)
board.cache_hierarchy.dptw_caches.tags.sampledRefs        25700                       # Sample count of references to valid blocks. (Count)
board.cache_hierarchy.dptw_caches.tags.avgRefs   169.959027                       # Average number of references to valid blocks. ((Count/Count))
board.cache_hierarchy.dptw_caches.tags.warmupTick 101642903165522                       # The tick when the warmup percentage was hit. (Tick)
board.cache_hierarchy.dptw_caches.tags.occupancies::processor.switch.core.mmu.dtb.walker   111.207052                       # Average occupied blocks per tick, per requestor ((Count/Tick))
board.cache_hierarchy.dptw_caches.tags.avgOccs::processor.switch.core.mmu.dtb.walker     0.868805                       # Average percentage of cache occupancy ((Ratio/Tick))
board.cache_hierarchy.dptw_caches.tags.avgOccs::total     0.868805                       # Average percentage of cache occupancy ((Ratio/Tick))
board.cache_hierarchy.dptw_caches.tags.occupanciesTaskId::1024          111                       # Occupied blocks per task id (Count)
board.cache_hierarchy.dptw_caches.tags.ageTaskId_1024::0            4                       # Occupied blocks per task id, per block age (Count)
board.cache_hierarchy.dptw_caches.tags.ageTaskId_1024::1           49                       # Occupied blocks per task id, per block age (Count)
board.cache_hierarchy.dptw_caches.tags.ageTaskId_1024::2           48                       # Occupied blocks per task id, per block age (Count)
board.cache_hierarchy.dptw_caches.tags.ageTaskId_1024::3            4                       # Occupied blocks per task id, per block age (Count)
board.cache_hierarchy.dptw_caches.tags.ageTaskId_1024::4            6                       # Occupied blocks per task id, per block age (Count)
board.cache_hierarchy.dptw_caches.tags.ratioOccsTaskId::1024     0.867188                       # Ratio of occupied blocks and all blocks, per task id (Ratio)
board.cache_hierarchy.dptw_caches.tags.tagAccesses     17515287                       # Number of tag accesses (Count)
board.cache_hierarchy.dptw_caches.tags.dataAccesses     17515287                       # Number of data accesses (Count)
board.cache_hierarchy.dptw_caches.tags.power_state.pwrStateResidencyTicks::UNDEFINED 101909203742736                       # Cumulative time (in ticks) in various power states (Tick)
board.cache_hierarchy.iocache.demandMisses::pc.south_bridge.ide         2053                       # number of demand (read+write) misses (Count)
board.cache_hierarchy.iocache.demandMisses::total         2053                       # number of demand (read+write) misses (Count)
board.cache_hierarchy.iocache.overallMisses::pc.south_bridge.ide         2053                       # number of overall misses (Count)
board.cache_hierarchy.iocache.overallMisses::total         2053                       # number of overall misses (Count)
board.cache_hierarchy.iocache.demandMissLatency::pc.south_bridge.ide     88998134                       # number of demand (read+write) miss ticks (Tick)
board.cache_hierarchy.iocache.demandMissLatency::total     88998134                       # number of demand (read+write) miss ticks (Tick)
board.cache_hierarchy.iocache.overallMissLatency::pc.south_bridge.ide     88998134                       # number of overall miss ticks (Tick)
board.cache_hierarchy.iocache.overallMissLatency::total     88998134                       # number of overall miss ticks (Tick)
board.cache_hierarchy.iocache.demandAccesses::pc.south_bridge.ide         2053                       # number of demand (read+write) accesses (Count)
board.cache_hierarchy.iocache.demandAccesses::total         2053                       # number of demand (read+write) accesses (Count)
board.cache_hierarchy.iocache.overallAccesses::pc.south_bridge.ide         2053                       # number of overall (read+write) accesses (Count)
board.cache_hierarchy.iocache.overallAccesses::total         2053                       # number of overall (read+write) accesses (Count)
board.cache_hierarchy.iocache.demandMissRate::pc.south_bridge.ide            1                       # miss rate for demand accesses (Ratio)
board.cache_hierarchy.iocache.demandMissRate::total            1                       # miss rate for demand accesses (Ratio)
board.cache_hierarchy.iocache.overallMissRate::pc.south_bridge.ide            1                       # miss rate for overall accesses (Ratio)
board.cache_hierarchy.iocache.overallMissRate::total            1                       # miss rate for overall accesses (Ratio)
board.cache_hierarchy.iocache.demandAvgMissLatency::pc.south_bridge.ide 43350.284462                       # average overall miss latency in ticks ((Tick/Count))
board.cache_hierarchy.iocache.demandAvgMissLatency::total 43350.284462                       # average overall miss latency in ticks ((Tick/Count))
board.cache_hierarchy.iocache.overallAvgMissLatency::pc.south_bridge.ide 43350.284462                       # average overall miss latency ((Tick/Count))
board.cache_hierarchy.iocache.overallAvgMissLatency::total 43350.284462                       # average overall miss latency ((Tick/Count))
board.cache_hierarchy.iocache.blockedCycles::no_mshrs          100                       # number of cycles access was blocked (Cycle)
board.cache_hierarchy.iocache.blockedCycles::no_targets            0                       # number of cycles access was blocked (Cycle)
board.cache_hierarchy.iocache.blockedCauses::no_mshrs            6                       # number of times access was blocked (Count)
board.cache_hierarchy.iocache.blockedCauses::no_targets            0                       # number of times access was blocked (Count)
board.cache_hierarchy.iocache.avgBlocked::no_mshrs    16.666667                       # average number of cycles each access was blocked ((Cycle/Count))
board.cache_hierarchy.iocache.avgBlocked::no_targets          nan                       # average number of cycles each access was blocked ((Cycle/Count))
board.cache_hierarchy.iocache.writebacks::writebacks         2032                       # number of writebacks (Count)
board.cache_hierarchy.iocache.writebacks::total         2032                       # number of writebacks (Count)
board.cache_hierarchy.iocache.demandMshrMisses::pc.south_bridge.ide         2053                       # number of demand (read+write) MSHR misses (Count)
board.cache_hierarchy.iocache.demandMshrMisses::total         2053                       # number of demand (read+write) MSHR misses (Count)
board.cache_hierarchy.iocache.overallMshrMisses::pc.south_bridge.ide         2053                       # number of overall MSHR misses (Count)
board.cache_hierarchy.iocache.overallMshrMisses::total         2053                       # number of overall MSHR misses (Count)
board.cache_hierarchy.iocache.demandMshrMissLatency::pc.south_bridge.ide     56841882                       # number of demand (read+write) MSHR miss ticks (Tick)
board.cache_hierarchy.iocache.demandMshrMissLatency::total     56841882                       # number of demand (read+write) MSHR miss ticks (Tick)
board.cache_hierarchy.iocache.overallMshrMissLatency::pc.south_bridge.ide     56841882                       # number of overall MSHR miss ticks (Tick)
board.cache_hierarchy.iocache.overallMshrMissLatency::total     56841882                       # number of overall MSHR miss ticks (Tick)
board.cache_hierarchy.iocache.demandMshrMissRate::pc.south_bridge.ide            1                       # mshr miss ratio for demand accesses (Ratio)
board.cache_hierarchy.iocache.demandMshrMissRate::total            1                       # mshr miss ratio for demand accesses (Ratio)
board.cache_hierarchy.iocache.overallMshrMissRate::pc.south_bridge.ide            1                       # mshr miss ratio for overall accesses (Ratio)
board.cache_hierarchy.iocache.overallMshrMissRate::total            1                       # mshr miss ratio for overall accesses (Ratio)
board.cache_hierarchy.iocache.demandAvgMshrMissLatency::pc.south_bridge.ide 27687.229420                       # average overall mshr miss latency ((Tick/Count))
board.cache_hierarchy.iocache.demandAvgMshrMissLatency::total 27687.229420                       # average overall mshr miss latency ((Tick/Count))
board.cache_hierarchy.iocache.overallAvgMshrMissLatency::pc.south_bridge.ide 27687.229420                       # average overall mshr miss latency ((Tick/Count))
board.cache_hierarchy.iocache.overallAvgMshrMissLatency::total 27687.229420                       # average overall mshr miss latency ((Tick/Count))
board.cache_hierarchy.iocache.replacements         2037                       # number of replacements (Count)
board.cache_hierarchy.iocache.ReadReq.misses::pc.south_bridge.ide            5                       # number of ReadReq misses (Count)
board.cache_hierarchy.iocache.ReadReq.misses::total            5                       # number of ReadReq misses (Count)
board.cache_hierarchy.iocache.ReadReq.missLatency::pc.south_bridge.ide       198375                       # number of ReadReq miss ticks (Tick)
board.cache_hierarchy.iocache.ReadReq.missLatency::total       198375                       # number of ReadReq miss ticks (Tick)
board.cache_hierarchy.iocache.ReadReq.accesses::pc.south_bridge.ide            5                       # number of ReadReq accesses(hits+misses) (Count)
board.cache_hierarchy.iocache.ReadReq.accesses::total            5                       # number of ReadReq accesses(hits+misses) (Count)
board.cache_hierarchy.iocache.ReadReq.missRate::pc.south_bridge.ide            1                       # miss rate for ReadReq accesses (Ratio)
board.cache_hierarchy.iocache.ReadReq.missRate::total            1                       # miss rate for ReadReq accesses (Ratio)
board.cache_hierarchy.iocache.ReadReq.avgMissLatency::pc.south_bridge.ide        39675                       # average ReadReq miss latency ((Tick/Count))
board.cache_hierarchy.iocache.ReadReq.avgMissLatency::total        39675                       # average ReadReq miss latency ((Tick/Count))
board.cache_hierarchy.iocache.ReadReq.mshrMisses::pc.south_bridge.ide            5                       # number of ReadReq MSHR misses (Count)
board.cache_hierarchy.iocache.ReadReq.mshrMisses::total            5                       # number of ReadReq MSHR misses (Count)
board.cache_hierarchy.iocache.ReadReq.mshrMissLatency::pc.south_bridge.ide       120125                       # number of ReadReq MSHR miss ticks (Tick)
board.cache_hierarchy.iocache.ReadReq.mshrMissLatency::total       120125                       # number of ReadReq MSHR miss ticks (Tick)
board.cache_hierarchy.iocache.ReadReq.mshrMissRate::pc.south_bridge.ide            1                       # mshr miss rate for ReadReq accesses (Ratio)
board.cache_hierarchy.iocache.ReadReq.mshrMissRate::total            1                       # mshr miss rate for ReadReq accesses (Ratio)
board.cache_hierarchy.iocache.ReadReq.avgMshrMissLatency::pc.south_bridge.ide        24025                       # average ReadReq mshr miss latency ((Tick/Count))
board.cache_hierarchy.iocache.ReadReq.avgMshrMissLatency::total        24025                       # average ReadReq mshr miss latency ((Tick/Count))
board.cache_hierarchy.iocache.WriteLineReq.misses::pc.south_bridge.ide         2048                       # number of WriteLineReq misses (Count)
board.cache_hierarchy.iocache.WriteLineReq.misses::total         2048                       # number of WriteLineReq misses (Count)
board.cache_hierarchy.iocache.WriteLineReq.missLatency::pc.south_bridge.ide     88799759                       # number of WriteLineReq miss ticks (Tick)
board.cache_hierarchy.iocache.WriteLineReq.missLatency::total     88799759                       # number of WriteLineReq miss ticks (Tick)
board.cache_hierarchy.iocache.WriteLineReq.accesses::pc.south_bridge.ide         2048                       # number of WriteLineReq accesses(hits+misses) (Count)
board.cache_hierarchy.iocache.WriteLineReq.accesses::total         2048                       # number of WriteLineReq accesses(hits+misses) (Count)
board.cache_hierarchy.iocache.WriteLineReq.missRate::pc.south_bridge.ide            1                       # miss rate for WriteLineReq accesses (Ratio)
board.cache_hierarchy.iocache.WriteLineReq.missRate::total            1                       # miss rate for WriteLineReq accesses (Ratio)
board.cache_hierarchy.iocache.WriteLineReq.avgMissLatency::pc.south_bridge.ide 43359.257324                       # average WriteLineReq miss latency ((Tick/Count))
board.cache_hierarchy.iocache.WriteLineReq.avgMissLatency::total 43359.257324                       # average WriteLineReq miss latency ((Tick/Count))
board.cache_hierarchy.iocache.WriteLineReq.mshrMisses::pc.south_bridge.ide         2048                       # number of WriteLineReq MSHR misses (Count)
board.cache_hierarchy.iocache.WriteLineReq.mshrMisses::total         2048                       # number of WriteLineReq MSHR misses (Count)
board.cache_hierarchy.iocache.WriteLineReq.mshrMissLatency::pc.south_bridge.ide     56721757                       # number of WriteLineReq MSHR miss ticks (Tick)
board.cache_hierarchy.iocache.WriteLineReq.mshrMissLatency::total     56721757                       # number of WriteLineReq MSHR miss ticks (Tick)
board.cache_hierarchy.iocache.WriteLineReq.mshrMissRate::pc.south_bridge.ide            1                       # mshr miss rate for WriteLineReq accesses (Ratio)
board.cache_hierarchy.iocache.WriteLineReq.mshrMissRate::total            1                       # mshr miss rate for WriteLineReq accesses (Ratio)
board.cache_hierarchy.iocache.WriteLineReq.avgMshrMissLatency::pc.south_bridge.ide 27696.170410                       # average WriteLineReq mshr miss latency ((Tick/Count))
board.cache_hierarchy.iocache.WriteLineReq.avgMshrMissLatency::total 27696.170410                       # average WriteLineReq mshr miss latency ((Tick/Count))
board.cache_hierarchy.iocache.power_state.pwrStateResidencyTicks::UNDEFINED 101909203742736                       # Cumulative time (in ticks) in various power states (Tick)
board.cache_hierarchy.iocache.tags.tagsInUse    12.946694                       # Average ticks per tags in use ((Tick/Count))
board.cache_hierarchy.iocache.tags.totalRefs         2037                       # Total number of references to valid blocks. (Count)
board.cache_hierarchy.iocache.tags.sampledRefs         2037                       # Sample count of references to valid blocks. (Count)
board.cache_hierarchy.iocache.tags.avgRefs            1                       # Average number of references to valid blocks. ((Count/Count))
board.cache_hierarchy.iocache.tags.warmupTick 101693720602599                       # The tick when the warmup percentage was hit. (Tick)
board.cache_hierarchy.iocache.tags.occupancies::pc.south_bridge.ide    12.946694                       # Average occupied blocks per tick, per requestor ((Count/Tick))
board.cache_hierarchy.iocache.tags.avgOccs::pc.south_bridge.ide     0.809168                       # Average percentage of cache occupancy ((Ratio/Tick))
board.cache_hierarchy.iocache.tags.avgOccs::total     0.809168                       # Average percentage of cache occupancy ((Ratio/Tick))
board.cache_hierarchy.iocache.tags.occupanciesTaskId::1023           16                       # Occupied blocks per task id (Count)
board.cache_hierarchy.iocache.tags.ageTaskId_1023::4           16                       # Occupied blocks per task id, per block age (Count)
board.cache_hierarchy.iocache.tags.ratioOccsTaskId::1023            1                       # Ratio of occupied blocks and all blocks, per task id (Ratio)
board.cache_hierarchy.iocache.tags.tagAccesses        18477                       # Number of tag accesses (Count)
board.cache_hierarchy.iocache.tags.dataAccesses        18477                       # Number of data accesses (Count)
board.cache_hierarchy.iocache.tags.power_state.pwrStateResidencyTicks::UNDEFINED 101909203742736                       # Cumulative time (in ticks) in various power states (Tick)
board.cache_hierarchy.iptw_caches.demandHits::processor.switch.core.mmu.itb.walker         7836                       # number of demand (read+write) hits (Count)
board.cache_hierarchy.iptw_caches.demandHits::total         7836                       # number of demand (read+write) hits (Count)
board.cache_hierarchy.iptw_caches.overallHits::processor.switch.core.mmu.itb.walker         7836                       # number of overall hits (Count)
board.cache_hierarchy.iptw_caches.overallHits::total         7836                       # number of overall hits (Count)
board.cache_hierarchy.iptw_caches.demandMisses::processor.switch.core.mmu.itb.walker          277                       # number of demand (read+write) misses (Count)
board.cache_hierarchy.iptw_caches.demandMisses::total          277                       # number of demand (read+write) misses (Count)
board.cache_hierarchy.iptw_caches.overallMisses::processor.switch.core.mmu.itb.walker          277                       # number of overall misses (Count)
board.cache_hierarchy.iptw_caches.overallMisses::total          277                       # number of overall misses (Count)
board.cache_hierarchy.iptw_caches.demandMissLatency::processor.switch.core.mmu.itb.walker      8426273                       # number of demand (read+write) miss ticks (Tick)
board.cache_hierarchy.iptw_caches.demandMissLatency::total      8426273                       # number of demand (read+write) miss ticks (Tick)
board.cache_hierarchy.iptw_caches.overallMissLatency::processor.switch.core.mmu.itb.walker      8426273                       # number of overall miss ticks (Tick)
board.cache_hierarchy.iptw_caches.overallMissLatency::total      8426273                       # number of overall miss ticks (Tick)
board.cache_hierarchy.iptw_caches.demandAccesses::processor.switch.core.mmu.itb.walker         8113                       # number of demand (read+write) accesses (Count)
board.cache_hierarchy.iptw_caches.demandAccesses::total         8113                       # number of demand (read+write) accesses (Count)
board.cache_hierarchy.iptw_caches.overallAccesses::processor.switch.core.mmu.itb.walker         8113                       # number of overall (read+write) accesses (Count)
board.cache_hierarchy.iptw_caches.overallAccesses::total         8113                       # number of overall (read+write) accesses (Count)
board.cache_hierarchy.iptw_caches.demandMissRate::processor.switch.core.mmu.itb.walker     0.034143                       # miss rate for demand accesses (Ratio)
board.cache_hierarchy.iptw_caches.demandMissRate::total     0.034143                       # miss rate for demand accesses (Ratio)
board.cache_hierarchy.iptw_caches.overallMissRate::processor.switch.core.mmu.itb.walker     0.034143                       # miss rate for overall accesses (Ratio)
board.cache_hierarchy.iptw_caches.overallMissRate::total     0.034143                       # miss rate for overall accesses (Ratio)
board.cache_hierarchy.iptw_caches.demandAvgMissLatency::processor.switch.core.mmu.itb.walker 30419.758123                       # average overall miss latency in ticks ((Tick/Count))
board.cache_hierarchy.iptw_caches.demandAvgMissLatency::total 30419.758123                       # average overall miss latency in ticks ((Tick/Count))
board.cache_hierarchy.iptw_caches.overallAvgMissLatency::processor.switch.core.mmu.itb.walker 30419.758123                       # average overall miss latency ((Tick/Count))
board.cache_hierarchy.iptw_caches.overallAvgMissLatency::total 30419.758123                       # average overall miss latency ((Tick/Count))
board.cache_hierarchy.iptw_caches.blockedCycles::no_mshrs            0                       # number of cycles access was blocked (Cycle)
board.cache_hierarchy.iptw_caches.blockedCycles::no_targets            0                       # number of cycles access was blocked (Cycle)
board.cache_hierarchy.iptw_caches.blockedCauses::no_mshrs            0                       # number of times access was blocked (Count)
board.cache_hierarchy.iptw_caches.blockedCauses::no_targets            0                       # number of times access was blocked (Count)
board.cache_hierarchy.iptw_caches.avgBlocked::no_mshrs          nan                       # average number of cycles each access was blocked ((Cycle/Count))
board.cache_hierarchy.iptw_caches.avgBlocked::no_targets          nan                       # average number of cycles each access was blocked ((Cycle/Count))
board.cache_hierarchy.iptw_caches.demandMshrMisses::processor.switch.core.mmu.itb.walker          277                       # number of demand (read+write) MSHR misses (Count)
board.cache_hierarchy.iptw_caches.demandMshrMisses::total          277                       # number of demand (read+write) MSHR misses (Count)
board.cache_hierarchy.iptw_caches.overallMshrMisses::processor.switch.core.mmu.itb.walker          277                       # number of overall MSHR misses (Count)
board.cache_hierarchy.iptw_caches.overallMshrMisses::total          277                       # number of overall MSHR misses (Count)
board.cache_hierarchy.iptw_caches.demandMshrMissLatency::processor.switch.core.mmu.itb.walker      8339572                       # number of demand (read+write) MSHR miss ticks (Tick)
board.cache_hierarchy.iptw_caches.demandMshrMissLatency::total      8339572                       # number of demand (read+write) MSHR miss ticks (Tick)
board.cache_hierarchy.iptw_caches.overallMshrMissLatency::processor.switch.core.mmu.itb.walker      8339572                       # number of overall MSHR miss ticks (Tick)
board.cache_hierarchy.iptw_caches.overallMshrMissLatency::total      8339572                       # number of overall MSHR miss ticks (Tick)
board.cache_hierarchy.iptw_caches.demandMshrMissRate::processor.switch.core.mmu.itb.walker     0.034143                       # mshr miss ratio for demand accesses (Ratio)
board.cache_hierarchy.iptw_caches.demandMshrMissRate::total     0.034143                       # mshr miss ratio for demand accesses (Ratio)
board.cache_hierarchy.iptw_caches.overallMshrMissRate::processor.switch.core.mmu.itb.walker     0.034143                       # mshr miss ratio for overall accesses (Ratio)
board.cache_hierarchy.iptw_caches.overallMshrMissRate::total     0.034143                       # mshr miss ratio for overall accesses (Ratio)
board.cache_hierarchy.iptw_caches.demandAvgMshrMissLatency::processor.switch.core.mmu.itb.walker 30106.758123                       # average overall mshr miss latency ((Tick/Count))
board.cache_hierarchy.iptw_caches.demandAvgMshrMissLatency::total 30106.758123                       # average overall mshr miss latency ((Tick/Count))
board.cache_hierarchy.iptw_caches.overallAvgMshrMissLatency::processor.switch.core.mmu.itb.walker 30106.758123                       # average overall mshr miss latency ((Tick/Count))
board.cache_hierarchy.iptw_caches.overallAvgMshrMissLatency::total 30106.758123                       # average overall mshr miss latency ((Tick/Count))
board.cache_hierarchy.iptw_caches.replacements           81                       # number of replacements (Count)
board.cache_hierarchy.iptw_caches.ReadReq.hits::processor.switch.core.mmu.itb.walker         7836                       # number of ReadReq hits (Count)
board.cache_hierarchy.iptw_caches.ReadReq.hits::total         7836                       # number of ReadReq hits (Count)
board.cache_hierarchy.iptw_caches.ReadReq.misses::processor.switch.core.mmu.itb.walker          277                       # number of ReadReq misses (Count)
board.cache_hierarchy.iptw_caches.ReadReq.misses::total          277                       # number of ReadReq misses (Count)
board.cache_hierarchy.iptw_caches.ReadReq.missLatency::processor.switch.core.mmu.itb.walker      8426273                       # number of ReadReq miss ticks (Tick)
board.cache_hierarchy.iptw_caches.ReadReq.missLatency::total      8426273                       # number of ReadReq miss ticks (Tick)
board.cache_hierarchy.iptw_caches.ReadReq.accesses::processor.switch.core.mmu.itb.walker         8113                       # number of ReadReq accesses(hits+misses) (Count)
board.cache_hierarchy.iptw_caches.ReadReq.accesses::total         8113                       # number of ReadReq accesses(hits+misses) (Count)
board.cache_hierarchy.iptw_caches.ReadReq.missRate::processor.switch.core.mmu.itb.walker     0.034143                       # miss rate for ReadReq accesses (Ratio)
board.cache_hierarchy.iptw_caches.ReadReq.missRate::total     0.034143                       # miss rate for ReadReq accesses (Ratio)
board.cache_hierarchy.iptw_caches.ReadReq.avgMissLatency::processor.switch.core.mmu.itb.walker 30419.758123                       # average ReadReq miss latency ((Tick/Count))
board.cache_hierarchy.iptw_caches.ReadReq.avgMissLatency::total 30419.758123                       # average ReadReq miss latency ((Tick/Count))
board.cache_hierarchy.iptw_caches.ReadReq.mshrMisses::processor.switch.core.mmu.itb.walker          277                       # number of ReadReq MSHR misses (Count)
board.cache_hierarchy.iptw_caches.ReadReq.mshrMisses::total          277                       # number of ReadReq MSHR misses (Count)
board.cache_hierarchy.iptw_caches.ReadReq.mshrMissLatency::processor.switch.core.mmu.itb.walker      8339572                       # number of ReadReq MSHR miss ticks (Tick)
board.cache_hierarchy.iptw_caches.ReadReq.mshrMissLatency::total      8339572                       # number of ReadReq MSHR miss ticks (Tick)
board.cache_hierarchy.iptw_caches.ReadReq.mshrMissRate::processor.switch.core.mmu.itb.walker     0.034143                       # mshr miss rate for ReadReq accesses (Ratio)
board.cache_hierarchy.iptw_caches.ReadReq.mshrMissRate::total     0.034143                       # mshr miss rate for ReadReq accesses (Ratio)
board.cache_hierarchy.iptw_caches.ReadReq.avgMshrMissLatency::processor.switch.core.mmu.itb.walker 30106.758123                       # average ReadReq mshr miss latency ((Tick/Count))
board.cache_hierarchy.iptw_caches.ReadReq.avgMshrMissLatency::total 30106.758123                       # average ReadReq mshr miss latency ((Tick/Count))
board.cache_hierarchy.iptw_caches.power_state.pwrStateResidencyTicks::UNDEFINED 101909203742736                       # Cumulative time (in ticks) in various power states (Tick)
board.cache_hierarchy.iptw_caches.tags.tagsInUse    42.381028                       # Average ticks per tags in use ((Tick/Count))
board.cache_hierarchy.iptw_caches.tags.totalRefs         4336                       # Total number of references to valid blocks. (Count)
board.cache_hierarchy.iptw_caches.tags.sampledRefs          226                       # Sample count of references to valid blocks. (Count)
board.cache_hierarchy.iptw_caches.tags.avgRefs    19.185841                       # Average number of references to valid blocks. ((Count/Count))
board.cache_hierarchy.iptw_caches.tags.warmupTick 101642903006831                       # The tick when the warmup percentage was hit. (Tick)
board.cache_hierarchy.iptw_caches.tags.occupancies::processor.switch.core.mmu.itb.walker    42.381028                       # Average occupied blocks per tick, per requestor ((Count/Tick))
board.cache_hierarchy.iptw_caches.tags.avgOccs::processor.switch.core.mmu.itb.walker     0.331102                       # Average percentage of cache occupancy ((Ratio/Tick))
board.cache_hierarchy.iptw_caches.tags.avgOccs::total     0.331102                       # Average percentage of cache occupancy ((Ratio/Tick))
board.cache_hierarchy.iptw_caches.tags.occupanciesTaskId::1024           51                       # Occupied blocks per task id (Count)
board.cache_hierarchy.iptw_caches.tags.ageTaskId_1024::1           10                       # Occupied blocks per task id, per block age (Count)
board.cache_hierarchy.iptw_caches.tags.ageTaskId_1024::2           25                       # Occupied blocks per task id, per block age (Count)
board.cache_hierarchy.iptw_caches.tags.ageTaskId_1024::3            1                       # Occupied blocks per task id, per block age (Count)
board.cache_hierarchy.iptw_caches.tags.ageTaskId_1024::4           15                       # Occupied blocks per task id, per block age (Count)
board.cache_hierarchy.iptw_caches.tags.ratioOccsTaskId::1024     0.398438                       # Ratio of occupied blocks and all blocks, per task id (Ratio)
board.cache_hierarchy.iptw_caches.tags.tagAccesses        32729                       # Number of tag accesses (Count)
board.cache_hierarchy.iptw_caches.tags.dataAccesses        32729                       # Number of data accesses (Count)
board.cache_hierarchy.iptw_caches.tags.power_state.pwrStateResidencyTicks::UNDEFINED 101909203742736                       # Cumulative time (in ticks) in various power states (Tick)
board.cache_hierarchy.l1dcaches.demandHits::processor.switch.core.data    175808053                       # number of demand (read+write) hits (Count)
board.cache_hierarchy.l1dcaches.demandHits::total    175808053                       # number of demand (read+write) hits (Count)
board.cache_hierarchy.l1dcaches.overallHits::processor.switch.core.data    177080825                       # number of overall hits (Count)
board.cache_hierarchy.l1dcaches.overallHits::total    177080825                       # number of overall hits (Count)
board.cache_hierarchy.l1dcaches.demandMisses::processor.switch.core.data      9653307                       # number of demand (read+write) misses (Count)
board.cache_hierarchy.l1dcaches.demandMisses::total      9653307                       # number of demand (read+write) misses (Count)
board.cache_hierarchy.l1dcaches.overallMisses::processor.switch.core.data      9803718                       # number of overall misses (Count)
board.cache_hierarchy.l1dcaches.overallMisses::total      9803718                       # number of overall misses (Count)
board.cache_hierarchy.l1dcaches.demandMissLatency::processor.switch.core.data 185703110336                       # number of demand (read+write) miss ticks (Tick)
board.cache_hierarchy.l1dcaches.demandMissLatency::total 185703110336                       # number of demand (read+write) miss ticks (Tick)
board.cache_hierarchy.l1dcaches.overallMissLatency::processor.switch.core.data 185703110336                       # number of overall miss ticks (Tick)
board.cache_hierarchy.l1dcaches.overallMissLatency::total 185703110336                       # number of overall miss ticks (Tick)
board.cache_hierarchy.l1dcaches.demandAccesses::processor.switch.core.data    185461360                       # number of demand (read+write) accesses (Count)
board.cache_hierarchy.l1dcaches.demandAccesses::total    185461360                       # number of demand (read+write) accesses (Count)
board.cache_hierarchy.l1dcaches.overallAccesses::processor.switch.core.data    186884543                       # number of overall (read+write) accesses (Count)
board.cache_hierarchy.l1dcaches.overallAccesses::total    186884543                       # number of overall (read+write) accesses (Count)
board.cache_hierarchy.l1dcaches.demandMissRate::processor.switch.core.data     0.052050                       # miss rate for demand accesses (Ratio)
board.cache_hierarchy.l1dcaches.demandMissRate::total     0.052050                       # miss rate for demand accesses (Ratio)
board.cache_hierarchy.l1dcaches.overallMissRate::processor.switch.core.data     0.052459                       # miss rate for overall accesses (Ratio)
board.cache_hierarchy.l1dcaches.overallMissRate::total     0.052459                       # miss rate for overall accesses (Ratio)
board.cache_hierarchy.l1dcaches.demandAvgMissLatency::processor.switch.core.data 19237.253134                       # average overall miss latency in ticks ((Tick/Count))
board.cache_hierarchy.l1dcaches.demandAvgMissLatency::total 19237.253134                       # average overall miss latency in ticks ((Tick/Count))
board.cache_hierarchy.l1dcaches.overallAvgMissLatency::processor.switch.core.data 18942.110568                       # average overall miss latency ((Tick/Count))
board.cache_hierarchy.l1dcaches.overallAvgMissLatency::total 18942.110568                       # average overall miss latency ((Tick/Count))
board.cache_hierarchy.l1dcaches.blockedCycles::no_mshrs         1036                       # number of cycles access was blocked (Cycle)
board.cache_hierarchy.l1dcaches.blockedCycles::no_targets         6995                       # number of cycles access was blocked (Cycle)
board.cache_hierarchy.l1dcaches.blockedCauses::no_mshrs           65                       # number of times access was blocked (Count)
board.cache_hierarchy.l1dcaches.blockedCauses::no_targets           78                       # number of times access was blocked (Count)
board.cache_hierarchy.l1dcaches.avgBlocked::no_mshrs    15.938462                       # average number of cycles each access was blocked ((Cycle/Count))
board.cache_hierarchy.l1dcaches.avgBlocked::no_targets    89.679487                       # average number of cycles each access was blocked ((Cycle/Count))
board.cache_hierarchy.l1dcaches.writebacks::writebacks       926581                       # number of writebacks (Count)
board.cache_hierarchy.l1dcaches.writebacks::total       926581                       # number of writebacks (Count)
board.cache_hierarchy.l1dcaches.demandMshrHits::processor.switch.core.data      2042340                       # number of demand (read+write) MSHR hits (Count)
board.cache_hierarchy.l1dcaches.demandMshrHits::total      2042340                       # number of demand (read+write) MSHR hits (Count)
board.cache_hierarchy.l1dcaches.overallMshrHits::processor.switch.core.data      2042340                       # number of overall MSHR hits (Count)
board.cache_hierarchy.l1dcaches.overallMshrHits::total      2042340                       # number of overall MSHR hits (Count)
board.cache_hierarchy.l1dcaches.demandMshrMisses::processor.switch.core.data      7610967                       # number of demand (read+write) MSHR misses (Count)
board.cache_hierarchy.l1dcaches.demandMshrMisses::total      7610967                       # number of demand (read+write) MSHR misses (Count)
board.cache_hierarchy.l1dcaches.overallMshrMisses::cache_hierarchy.l1dcaches.prefetcher       387990                       # number of overall MSHR misses (Count)
board.cache_hierarchy.l1dcaches.overallMshrMisses::processor.switch.core.data      7713623                       # number of overall MSHR misses (Count)
board.cache_hierarchy.l1dcaches.overallMshrMisses::total      8101613                       # number of overall MSHR misses (Count)
board.cache_hierarchy.l1dcaches.overallMshrUncacheable::processor.switch.core.data         6299                       # number of overall MSHR uncacheable misses (Count)
board.cache_hierarchy.l1dcaches.overallMshrUncacheable::total         6299                       # number of overall MSHR uncacheable misses (Count)
board.cache_hierarchy.l1dcaches.demandMshrMissLatency::processor.switch.core.data 160984525341                       # number of demand (read+write) MSHR miss ticks (Tick)
board.cache_hierarchy.l1dcaches.demandMshrMissLatency::total 160984525341                       # number of demand (read+write) MSHR miss ticks (Tick)
board.cache_hierarchy.l1dcaches.overallMshrMissLatency::cache_hierarchy.l1dcaches.prefetcher   8691818935                       # number of overall MSHR miss ticks (Tick)
board.cache_hierarchy.l1dcaches.overallMshrMissLatency::processor.switch.core.data 164949682896                       # number of overall MSHR miss ticks (Tick)
board.cache_hierarchy.l1dcaches.overallMshrMissLatency::total 173641501831                       # number of overall MSHR miss ticks (Tick)
board.cache_hierarchy.l1dcaches.overallMshrUncacheableLatency::processor.switch.core.data    943282466                       # number of overall MSHR uncacheable ticks (Tick)
board.cache_hierarchy.l1dcaches.overallMshrUncacheableLatency::total    943282466                       # number of overall MSHR uncacheable ticks (Tick)
board.cache_hierarchy.l1dcaches.demandMshrMissRate::processor.switch.core.data     0.041038                       # mshr miss ratio for demand accesses (Ratio)
board.cache_hierarchy.l1dcaches.demandMshrMissRate::total     0.041038                       # mshr miss ratio for demand accesses (Ratio)
board.cache_hierarchy.l1dcaches.overallMshrMissRate::cache_hierarchy.l1dcaches.prefetcher          inf                       # mshr miss ratio for overall accesses (Ratio)
board.cache_hierarchy.l1dcaches.overallMshrMissRate::processor.switch.core.data     0.041275                       # mshr miss ratio for overall accesses (Ratio)
board.cache_hierarchy.l1dcaches.overallMshrMissRate::total     0.043351                       # mshr miss ratio for overall accesses (Ratio)
board.cache_hierarchy.l1dcaches.demandAvgMshrMissLatency::processor.switch.core.data 21151.651997                       # average overall mshr miss latency ((Tick/Count))
board.cache_hierarchy.l1dcaches.demandAvgMshrMissLatency::total 21151.651997                       # average overall mshr miss latency ((Tick/Count))
board.cache_hierarchy.l1dcaches.overallAvgMshrMissLatency::cache_hierarchy.l1dcaches.prefetcher 22402.172569                       # average overall mshr miss latency ((Tick/Count))
board.cache_hierarchy.l1dcaches.overallAvgMshrMissLatency::processor.switch.core.data 21384.203363                       # average overall mshr miss latency ((Tick/Count))
board.cache_hierarchy.l1dcaches.overallAvgMshrMissLatency::total 21432.954380                       # average overall mshr miss latency ((Tick/Count))
board.cache_hierarchy.l1dcaches.overallAvgMshrUncacheableLatency::processor.switch.core.data 149751.145579                       # average overall mshr uncacheable latency ((Tick/Count))
board.cache_hierarchy.l1dcaches.overallAvgMshrUncacheableLatency::total 149751.145579                       # average overall mshr uncacheable latency ((Tick/Count))
board.cache_hierarchy.l1dcaches.replacements      8099971                       # number of replacements (Count)
board.cache_hierarchy.l1dcaches.HardPFReq.mshrMisses::cache_hierarchy.l1dcaches.prefetcher       387990                       # number of HardPFReq MSHR misses (Count)
board.cache_hierarchy.l1dcaches.HardPFReq.mshrMisses::total       387990                       # number of HardPFReq MSHR misses (Count)
board.cache_hierarchy.l1dcaches.HardPFReq.mshrMissLatency::cache_hierarchy.l1dcaches.prefetcher   8691818935                       # number of HardPFReq MSHR miss ticks (Tick)
board.cache_hierarchy.l1dcaches.HardPFReq.mshrMissLatency::total   8691818935                       # number of HardPFReq MSHR miss ticks (Tick)
board.cache_hierarchy.l1dcaches.HardPFReq.mshrMissRate::cache_hierarchy.l1dcaches.prefetcher          inf                       # mshr miss rate for HardPFReq accesses (Ratio)
board.cache_hierarchy.l1dcaches.HardPFReq.mshrMissRate::total          inf                       # mshr miss rate for HardPFReq accesses (Ratio)
board.cache_hierarchy.l1dcaches.HardPFReq.avgMshrMissLatency::cache_hierarchy.l1dcaches.prefetcher 22402.172569                       # average HardPFReq mshr miss latency ((Tick/Count))
board.cache_hierarchy.l1dcaches.HardPFReq.avgMshrMissLatency::total 22402.172569                       # average HardPFReq mshr miss latency ((Tick/Count))
board.cache_hierarchy.l1dcaches.LockedRMWReadReq.hits::processor.switch.core.data        19789                       # number of LockedRMWReadReq hits (Count)
board.cache_hierarchy.l1dcaches.LockedRMWReadReq.hits::total        19789                       # number of LockedRMWReadReq hits (Count)
board.cache_hierarchy.l1dcaches.LockedRMWReadReq.misses::processor.switch.core.data          237                       # number of LockedRMWReadReq misses (Count)
board.cache_hierarchy.l1dcaches.LockedRMWReadReq.misses::total          237                       # number of LockedRMWReadReq misses (Count)
board.cache_hierarchy.l1dcaches.LockedRMWReadReq.missLatency::processor.switch.core.data      4249601                       # number of LockedRMWReadReq miss ticks (Tick)
board.cache_hierarchy.l1dcaches.LockedRMWReadReq.missLatency::total      4249601                       # number of LockedRMWReadReq miss ticks (Tick)
board.cache_hierarchy.l1dcaches.LockedRMWReadReq.accesses::processor.switch.core.data        20026                       # number of LockedRMWReadReq accesses(hits+misses) (Count)
board.cache_hierarchy.l1dcaches.LockedRMWReadReq.accesses::total        20026                       # number of LockedRMWReadReq accesses(hits+misses) (Count)
board.cache_hierarchy.l1dcaches.LockedRMWReadReq.missRate::processor.switch.core.data     0.011835                       # miss rate for LockedRMWReadReq accesses (Ratio)
board.cache_hierarchy.l1dcaches.LockedRMWReadReq.missRate::total     0.011835                       # miss rate for LockedRMWReadReq accesses (Ratio)
board.cache_hierarchy.l1dcaches.LockedRMWReadReq.avgMissLatency::processor.switch.core.data 17930.805907                       # average LockedRMWReadReq miss latency ((Tick/Count))
board.cache_hierarchy.l1dcaches.LockedRMWReadReq.avgMissLatency::total 17930.805907                       # average LockedRMWReadReq miss latency ((Tick/Count))
board.cache_hierarchy.l1dcaches.LockedRMWReadReq.mshrMisses::processor.switch.core.data          237                       # number of LockedRMWReadReq MSHR misses (Count)
board.cache_hierarchy.l1dcaches.LockedRMWReadReq.mshrMisses::total          237                       # number of LockedRMWReadReq MSHR misses (Count)
board.cache_hierarchy.l1dcaches.LockedRMWReadReq.mshrMissLatency::processor.switch.core.data     54011593                       # number of LockedRMWReadReq MSHR miss ticks (Tick)
board.cache_hierarchy.l1dcaches.LockedRMWReadReq.mshrMissLatency::total     54011593                       # number of LockedRMWReadReq MSHR miss ticks (Tick)
board.cache_hierarchy.l1dcaches.LockedRMWReadReq.mshrMissRate::processor.switch.core.data     0.011835                       # mshr miss rate for LockedRMWReadReq accesses (Ratio)
board.cache_hierarchy.l1dcaches.LockedRMWReadReq.mshrMissRate::total     0.011835                       # mshr miss rate for LockedRMWReadReq accesses (Ratio)
board.cache_hierarchy.l1dcaches.LockedRMWReadReq.avgMshrMissLatency::processor.switch.core.data 227897.016878                       # average LockedRMWReadReq mshr miss latency ((Tick/Count))
board.cache_hierarchy.l1dcaches.LockedRMWReadReq.avgMshrMissLatency::total 227897.016878                       # average LockedRMWReadReq mshr miss latency ((Tick/Count))
board.cache_hierarchy.l1dcaches.LockedRMWWriteReq.hits::processor.switch.core.data        20026                       # number of LockedRMWWriteReq hits (Count)
board.cache_hierarchy.l1dcaches.LockedRMWWriteReq.hits::total        20026                       # number of LockedRMWWriteReq hits (Count)
board.cache_hierarchy.l1dcaches.LockedRMWWriteReq.accesses::processor.switch.core.data        20026                       # number of LockedRMWWriteReq accesses(hits+misses) (Count)
board.cache_hierarchy.l1dcaches.LockedRMWWriteReq.accesses::total        20026                       # number of LockedRMWWriteReq accesses(hits+misses) (Count)
board.cache_hierarchy.l1dcaches.ReadReq.hits::processor.switch.core.data    138474035                       # number of ReadReq hits (Count)
board.cache_hierarchy.l1dcaches.ReadReq.hits::total    138474035                       # number of ReadReq hits (Count)
board.cache_hierarchy.l1dcaches.ReadReq.misses::processor.switch.core.data      9233995                       # number of ReadReq misses (Count)
board.cache_hierarchy.l1dcaches.ReadReq.misses::total      9233995                       # number of ReadReq misses (Count)
board.cache_hierarchy.l1dcaches.ReadReq.missLatency::processor.switch.core.data 179997902836                       # number of ReadReq miss ticks (Tick)
board.cache_hierarchy.l1dcaches.ReadReq.missLatency::total 179997902836                       # number of ReadReq miss ticks (Tick)
board.cache_hierarchy.l1dcaches.ReadReq.accesses::processor.switch.core.data    147708030                       # number of ReadReq accesses(hits+misses) (Count)
board.cache_hierarchy.l1dcaches.ReadReq.accesses::total    147708030                       # number of ReadReq accesses(hits+misses) (Count)
board.cache_hierarchy.l1dcaches.ReadReq.missRate::processor.switch.core.data     0.062515                       # miss rate for ReadReq accesses (Ratio)
board.cache_hierarchy.l1dcaches.ReadReq.missRate::total     0.062515                       # miss rate for ReadReq accesses (Ratio)
board.cache_hierarchy.l1dcaches.ReadReq.avgMissLatency::processor.switch.core.data 19492.960830                       # average ReadReq miss latency ((Tick/Count))
board.cache_hierarchy.l1dcaches.ReadReq.avgMissLatency::total 19492.960830                       # average ReadReq miss latency ((Tick/Count))
board.cache_hierarchy.l1dcaches.ReadReq.mshrHits::processor.switch.core.data      1994417                       # number of ReadReq MSHR hits (Count)
board.cache_hierarchy.l1dcaches.ReadReq.mshrHits::total      1994417                       # number of ReadReq MSHR hits (Count)
board.cache_hierarchy.l1dcaches.ReadReq.mshrMisses::processor.switch.core.data      7239578                       # number of ReadReq MSHR misses (Count)
board.cache_hierarchy.l1dcaches.ReadReq.mshrMisses::total      7239578                       # number of ReadReq MSHR misses (Count)
board.cache_hierarchy.l1dcaches.ReadReq.mshrUncacheable::processor.switch.core.data         4494                       # number of ReadReq MSHR uncacheable (Count)
board.cache_hierarchy.l1dcaches.ReadReq.mshrUncacheable::total         4494                       # number of ReadReq MSHR uncacheable (Count)
board.cache_hierarchy.l1dcaches.ReadReq.mshrMissLatency::processor.switch.core.data 155849204453                       # number of ReadReq MSHR miss ticks (Tick)
board.cache_hierarchy.l1dcaches.ReadReq.mshrMissLatency::total 155849204453                       # number of ReadReq MSHR miss ticks (Tick)
board.cache_hierarchy.l1dcaches.ReadReq.mshrUncacheableLatency::processor.switch.core.data    943282466                       # number of ReadReq MSHR uncacheable ticks (Tick)
board.cache_hierarchy.l1dcaches.ReadReq.mshrUncacheableLatency::total    943282466                       # number of ReadReq MSHR uncacheable ticks (Tick)
board.cache_hierarchy.l1dcaches.ReadReq.mshrMissRate::processor.switch.core.data     0.049013                       # mshr miss rate for ReadReq accesses (Ratio)
board.cache_hierarchy.l1dcaches.ReadReq.mshrMissRate::total     0.049013                       # mshr miss rate for ReadReq accesses (Ratio)
board.cache_hierarchy.l1dcaches.ReadReq.avgMshrMissLatency::processor.switch.core.data 21527.387985                       # average ReadReq mshr miss latency ((Tick/Count))
board.cache_hierarchy.l1dcaches.ReadReq.avgMshrMissLatency::total 21527.387985                       # average ReadReq mshr miss latency ((Tick/Count))
board.cache_hierarchy.l1dcaches.ReadReq.avgMshrUncacheableLatency::processor.switch.core.data 209898.190031                       # average ReadReq mshr uncacheable latency ((Tick/Count))
board.cache_hierarchy.l1dcaches.ReadReq.avgMshrUncacheableLatency::total 209898.190031                       # average ReadReq mshr uncacheable latency ((Tick/Count))
board.cache_hierarchy.l1dcaches.SoftPFReq.hits::processor.switch.core.data      1272772                       # number of SoftPFReq hits (Count)
board.cache_hierarchy.l1dcaches.SoftPFReq.hits::total      1272772                       # number of SoftPFReq hits (Count)
board.cache_hierarchy.l1dcaches.SoftPFReq.misses::processor.switch.core.data       150411                       # number of SoftPFReq misses (Count)
board.cache_hierarchy.l1dcaches.SoftPFReq.misses::total       150411                       # number of SoftPFReq misses (Count)
board.cache_hierarchy.l1dcaches.SoftPFReq.accesses::processor.switch.core.data      1423183                       # number of SoftPFReq accesses(hits+misses) (Count)
board.cache_hierarchy.l1dcaches.SoftPFReq.accesses::total      1423183                       # number of SoftPFReq accesses(hits+misses) (Count)
board.cache_hierarchy.l1dcaches.SoftPFReq.missRate::processor.switch.core.data     0.105686                       # miss rate for SoftPFReq accesses (Ratio)
board.cache_hierarchy.l1dcaches.SoftPFReq.missRate::total     0.105686                       # miss rate for SoftPFReq accesses (Ratio)
board.cache_hierarchy.l1dcaches.SoftPFReq.mshrMisses::processor.switch.core.data       102656                       # number of SoftPFReq MSHR misses (Count)
board.cache_hierarchy.l1dcaches.SoftPFReq.mshrMisses::total       102656                       # number of SoftPFReq MSHR misses (Count)
board.cache_hierarchy.l1dcaches.SoftPFReq.mshrMissLatency::processor.switch.core.data   3965157555                       # number of SoftPFReq MSHR miss ticks (Tick)
board.cache_hierarchy.l1dcaches.SoftPFReq.mshrMissLatency::total   3965157555                       # number of SoftPFReq MSHR miss ticks (Tick)
board.cache_hierarchy.l1dcaches.SoftPFReq.mshrMissRate::processor.switch.core.data     0.072131                       # mshr miss rate for SoftPFReq accesses (Ratio)
board.cache_hierarchy.l1dcaches.SoftPFReq.mshrMissRate::total     0.072131                       # mshr miss rate for SoftPFReq accesses (Ratio)
board.cache_hierarchy.l1dcaches.SoftPFReq.avgMshrMissLatency::processor.switch.core.data 38625.677554                       # average SoftPFReq mshr miss latency ((Tick/Count))
board.cache_hierarchy.l1dcaches.SoftPFReq.avgMshrMissLatency::total 38625.677554                       # average SoftPFReq mshr miss latency ((Tick/Count))
board.cache_hierarchy.l1dcaches.WriteReq.hits::processor.switch.core.data     37334018                       # number of WriteReq hits (Count)
board.cache_hierarchy.l1dcaches.WriteReq.hits::total     37334018                       # number of WriteReq hits (Count)
board.cache_hierarchy.l1dcaches.WriteReq.misses::processor.switch.core.data       419312                       # number of WriteReq misses (Count)
board.cache_hierarchy.l1dcaches.WriteReq.misses::total       419312                       # number of WriteReq misses (Count)
board.cache_hierarchy.l1dcaches.WriteReq.missLatency::processor.switch.core.data   5705207500                       # number of WriteReq miss ticks (Tick)
board.cache_hierarchy.l1dcaches.WriteReq.missLatency::total   5705207500                       # number of WriteReq miss ticks (Tick)
board.cache_hierarchy.l1dcaches.WriteReq.accesses::processor.switch.core.data     37753330                       # number of WriteReq accesses(hits+misses) (Count)
board.cache_hierarchy.l1dcaches.WriteReq.accesses::total     37753330                       # number of WriteReq accesses(hits+misses) (Count)
board.cache_hierarchy.l1dcaches.WriteReq.missRate::processor.switch.core.data     0.011107                       # miss rate for WriteReq accesses (Ratio)
board.cache_hierarchy.l1dcaches.WriteReq.missRate::total     0.011107                       # miss rate for WriteReq accesses (Ratio)
board.cache_hierarchy.l1dcaches.WriteReq.avgMissLatency::processor.switch.core.data 13606.115494                       # average WriteReq miss latency ((Tick/Count))
board.cache_hierarchy.l1dcaches.WriteReq.avgMissLatency::total 13606.115494                       # average WriteReq miss latency ((Tick/Count))
board.cache_hierarchy.l1dcaches.WriteReq.mshrHits::processor.switch.core.data        47923                       # number of WriteReq MSHR hits (Count)
board.cache_hierarchy.l1dcaches.WriteReq.mshrHits::total        47923                       # number of WriteReq MSHR hits (Count)
board.cache_hierarchy.l1dcaches.WriteReq.mshrMisses::processor.switch.core.data       371389                       # number of WriteReq MSHR misses (Count)
board.cache_hierarchy.l1dcaches.WriteReq.mshrMisses::total       371389                       # number of WriteReq MSHR misses (Count)
board.cache_hierarchy.l1dcaches.WriteReq.mshrUncacheable::processor.switch.core.data         1805                       # number of WriteReq MSHR uncacheable (Count)
board.cache_hierarchy.l1dcaches.WriteReq.mshrUncacheable::total         1805                       # number of WriteReq MSHR uncacheable (Count)
board.cache_hierarchy.l1dcaches.WriteReq.mshrMissLatency::processor.switch.core.data   5135320888                       # number of WriteReq MSHR miss ticks (Tick)
board.cache_hierarchy.l1dcaches.WriteReq.mshrMissLatency::total   5135320888                       # number of WriteReq MSHR miss ticks (Tick)
board.cache_hierarchy.l1dcaches.WriteReq.mshrMissRate::processor.switch.core.data     0.009837                       # mshr miss rate for WriteReq accesses (Ratio)
board.cache_hierarchy.l1dcaches.WriteReq.mshrMissRate::total     0.009837                       # mshr miss rate for WriteReq accesses (Ratio)
board.cache_hierarchy.l1dcaches.WriteReq.avgMshrMissLatency::processor.switch.core.data 13827.337072                       # average WriteReq mshr miss latency ((Tick/Count))
board.cache_hierarchy.l1dcaches.WriteReq.avgMshrMissLatency::total 13827.337072                       # average WriteReq mshr miss latency ((Tick/Count))
board.cache_hierarchy.l1dcaches.power_state.pwrStateResidencyTicks::UNDEFINED 101909203742736                       # Cumulative time (in ticks) in various power states (Tick)
board.cache_hierarchy.l1dcaches.prefetcher.demandMshrMisses      7610967                       # demands not covered by prefetchs (Count)
board.cache_hierarchy.l1dcaches.prefetcher.pfIssued       875187                       # number of hwpf issued (Count)
board.cache_hierarchy.l1dcaches.prefetcher.pfUnused        81501                       # number of HardPF blocks evicted w/o reference (Count)
board.cache_hierarchy.l1dcaches.prefetcher.pfUseful       270290                       # number of useful prefetch (Count)
board.cache_hierarchy.l1dcaches.prefetcher.pfUsefulButMiss            0                       # number of hit on prefetch but cache block is not in an usable state (Count)
board.cache_hierarchy.l1dcaches.prefetcher.accuracy     0.308837                       # accuracy of the prefetcher (Count)
board.cache_hierarchy.l1dcaches.prefetcher.coverage     0.034295                       # coverage brought by this prefetcher (Count)
board.cache_hierarchy.l1dcaches.prefetcher.pfHitInCache       134117                       # number of prefetches hitting in cache (Count)
board.cache_hierarchy.l1dcaches.prefetcher.pfHitInMSHR       353080                       # number of prefetches hitting in a MSHR (Count)
board.cache_hierarchy.l1dcaches.prefetcher.pfHitInWB            0                       # number of prefetches hit in the Write Buffer (Count)
board.cache_hierarchy.l1dcaches.prefetcher.pfLate       487197                       # number of late prefetches (hitting in cache, MSHR or WB) (Count)
board.cache_hierarchy.l1dcaches.prefetcher.pfIdentified      1152213                       # number of prefetch candidates identified (Count)
board.cache_hierarchy.l1dcaches.prefetcher.pfBufferHit       229695                       # number of redundant prefetches already in prefetch queue (Count)
board.cache_hierarchy.l1dcaches.prefetcher.pfInCache            0                       # number of redundant prefetches already in cache/mshr dropped (Count)
board.cache_hierarchy.l1dcaches.prefetcher.pfRemovedDemand          791                       # number of prefetches dropped due to a demand for the same address (Count)
board.cache_hierarchy.l1dcaches.prefetcher.pfRemovedFull            0                       # number of prefetches dropped due to prefetch queue size (Count)
board.cache_hierarchy.l1dcaches.prefetcher.pfSpanPage       256407                       # number of prefetches that crossed the page (Count)
board.cache_hierarchy.l1dcaches.prefetcher.pfUsefulSpanPage            0                       # number of prefetches that is useful and crossed the page (Count)
board.cache_hierarchy.l1dcaches.prefetcher.power_state.pwrStateResidencyTicks::UNDEFINED 101909203742736                       # Cumulative time (in ticks) in various power states (Tick)
board.cache_hierarchy.l1dcaches.tags.tagsInUse   255.210009                       # Average ticks per tags in use ((Tick/Count))
board.cache_hierarchy.l1dcaches.tags.totalRefs    185217979                       # Total number of references to valid blocks. (Count)
board.cache_hierarchy.l1dcaches.tags.sampledRefs      8099971                       # Sample count of references to valid blocks. (Count)
board.cache_hierarchy.l1dcaches.tags.avgRefs    22.866499                       # Average number of references to valid blocks. ((Count/Count))
board.cache_hierarchy.l1dcaches.tags.warmupTick 101642903250971                       # The tick when the warmup percentage was hit. (Tick)
board.cache_hierarchy.l1dcaches.tags.occupancies::cache_hierarchy.l1dcaches.prefetcher    13.262361                       # Average occupied blocks per tick, per requestor ((Count/Tick))
board.cache_hierarchy.l1dcaches.tags.occupancies::processor.switch.core.data   241.947648                       # Average occupied blocks per tick, per requestor ((Count/Tick))
board.cache_hierarchy.l1dcaches.tags.avgOccs::cache_hierarchy.l1dcaches.prefetcher     0.051806                       # Average percentage of cache occupancy ((Ratio/Tick))
board.cache_hierarchy.l1dcaches.tags.avgOccs::processor.switch.core.data     0.945108                       # Average percentage of cache occupancy ((Ratio/Tick))
board.cache_hierarchy.l1dcaches.tags.avgOccs::total     0.996914                       # Average percentage of cache occupancy ((Ratio/Tick))
board.cache_hierarchy.l1dcaches.tags.occupanciesTaskId::1022            6                       # Occupied blocks per task id (Count)
board.cache_hierarchy.l1dcaches.tags.occupanciesTaskId::1024          250                       # Occupied blocks per task id (Count)
board.cache_hierarchy.l1dcaches.tags.ageTaskId_1022::1            6                       # Occupied blocks per task id, per block age (Count)
board.cache_hierarchy.l1dcaches.tags.ageTaskId_1024::0          157                       # Occupied blocks per task id, per block age (Count)
board.cache_hierarchy.l1dcaches.tags.ageTaskId_1024::1           93                       # Occupied blocks per task id, per block age (Count)
board.cache_hierarchy.l1dcaches.tags.ratioOccsTaskId::1022     0.023438                       # Ratio of occupied blocks and all blocks, per task id (Ratio)
board.cache_hierarchy.l1dcaches.tags.ratioOccsTaskId::1024     0.976562                       # Ratio of occupied blocks and all blocks, per task id (Ratio)
board.cache_hierarchy.l1dcaches.tags.tagAccesses   1503496987                       # Number of tag accesses (Count)
board.cache_hierarchy.l1dcaches.tags.dataAccesses   1503496987                       # Number of data accesses (Count)
board.cache_hierarchy.l1dcaches.tags.power_state.pwrStateResidencyTicks::UNDEFINED 101909203742736                       # Cumulative time (in ticks) in various power states (Tick)
board.cache_hierarchy.l1icaches.demandHits::processor.switch.core.inst     63817146                       # number of demand (read+write) hits (Count)
board.cache_hierarchy.l1icaches.demandHits::total     63817146                       # number of demand (read+write) hits (Count)
board.cache_hierarchy.l1icaches.overallHits::processor.switch.core.inst     63817146                       # number of overall hits (Count)
board.cache_hierarchy.l1icaches.overallHits::total     63817146                       # number of overall hits (Count)
board.cache_hierarchy.l1icaches.demandMisses::processor.switch.core.inst      2580930                       # number of demand (read+write) misses (Count)
board.cache_hierarchy.l1icaches.demandMisses::total      2580930                       # number of demand (read+write) misses (Count)
board.cache_hierarchy.l1icaches.overallMisses::processor.switch.core.inst      2580930                       # number of overall misses (Count)
board.cache_hierarchy.l1icaches.overallMisses::total      2580930                       # number of overall misses (Count)
board.cache_hierarchy.l1icaches.demandMissLatency::processor.switch.core.inst  31296687521                       # number of demand (read+write) miss ticks (Tick)
board.cache_hierarchy.l1icaches.demandMissLatency::total  31296687521                       # number of demand (read+write) miss ticks (Tick)
board.cache_hierarchy.l1icaches.overallMissLatency::processor.switch.core.inst  31296687521                       # number of overall miss ticks (Tick)
board.cache_hierarchy.l1icaches.overallMissLatency::total  31296687521                       # number of overall miss ticks (Tick)
board.cache_hierarchy.l1icaches.demandAccesses::processor.switch.core.inst     66398076                       # number of demand (read+write) accesses (Count)
board.cache_hierarchy.l1icaches.demandAccesses::total     66398076                       # number of demand (read+write) accesses (Count)
board.cache_hierarchy.l1icaches.overallAccesses::processor.switch.core.inst     66398076                       # number of overall (read+write) accesses (Count)
board.cache_hierarchy.l1icaches.overallAccesses::total     66398076                       # number of overall (read+write) accesses (Count)
board.cache_hierarchy.l1icaches.demandMissRate::processor.switch.core.inst     0.038871                       # miss rate for demand accesses (Ratio)
board.cache_hierarchy.l1icaches.demandMissRate::total     0.038871                       # miss rate for demand accesses (Ratio)
board.cache_hierarchy.l1icaches.overallMissRate::processor.switch.core.inst     0.038871                       # miss rate for overall accesses (Ratio)
board.cache_hierarchy.l1icaches.overallMissRate::total     0.038871                       # miss rate for overall accesses (Ratio)
board.cache_hierarchy.l1icaches.demandAvgMissLatency::processor.switch.core.inst 12126.127993                       # average overall miss latency in ticks ((Tick/Count))
board.cache_hierarchy.l1icaches.demandAvgMissLatency::total 12126.127993                       # average overall miss latency in ticks ((Tick/Count))
board.cache_hierarchy.l1icaches.overallAvgMissLatency::processor.switch.core.inst 12126.127993                       # average overall miss latency ((Tick/Count))
board.cache_hierarchy.l1icaches.overallAvgMissLatency::total 12126.127993                       # average overall miss latency ((Tick/Count))
board.cache_hierarchy.l1icaches.blockedCycles::no_mshrs            0                       # number of cycles access was blocked (Cycle)
board.cache_hierarchy.l1icaches.blockedCycles::no_targets            0                       # number of cycles access was blocked (Cycle)
board.cache_hierarchy.l1icaches.blockedCauses::no_mshrs            0                       # number of times access was blocked (Count)
board.cache_hierarchy.l1icaches.blockedCauses::no_targets            0                       # number of times access was blocked (Count)
board.cache_hierarchy.l1icaches.avgBlocked::no_mshrs          nan                       # average number of cycles each access was blocked ((Cycle/Count))
board.cache_hierarchy.l1icaches.avgBlocked::no_targets          nan                       # average number of cycles each access was blocked ((Cycle/Count))
board.cache_hierarchy.l1icaches.demandMshrHits::processor.switch.core.inst        42465                       # number of demand (read+write) MSHR hits (Count)
board.cache_hierarchy.l1icaches.demandMshrHits::total        42465                       # number of demand (read+write) MSHR hits (Count)
board.cache_hierarchy.l1icaches.overallMshrHits::processor.switch.core.inst        42465                       # number of overall MSHR hits (Count)
board.cache_hierarchy.l1icaches.overallMshrHits::total        42465                       # number of overall MSHR hits (Count)
board.cache_hierarchy.l1icaches.demandMshrMisses::processor.switch.core.inst      2538465                       # number of demand (read+write) MSHR misses (Count)
board.cache_hierarchy.l1icaches.demandMshrMisses::total      2538465                       # number of demand (read+write) MSHR misses (Count)
board.cache_hierarchy.l1icaches.overallMshrMisses::processor.switch.core.inst      2538465                       # number of overall MSHR misses (Count)
board.cache_hierarchy.l1icaches.overallMshrMisses::total      2538465                       # number of overall MSHR misses (Count)
board.cache_hierarchy.l1icaches.demandMshrMissLatency::processor.switch.core.inst  29744647599                       # number of demand (read+write) MSHR miss ticks (Tick)
board.cache_hierarchy.l1icaches.demandMshrMissLatency::total  29744647599                       # number of demand (read+write) MSHR miss ticks (Tick)
board.cache_hierarchy.l1icaches.overallMshrMissLatency::processor.switch.core.inst  29744647599                       # number of overall MSHR miss ticks (Tick)
board.cache_hierarchy.l1icaches.overallMshrMissLatency::total  29744647599                       # number of overall MSHR miss ticks (Tick)
board.cache_hierarchy.l1icaches.demandMshrMissRate::processor.switch.core.inst     0.038231                       # mshr miss ratio for demand accesses (Ratio)
board.cache_hierarchy.l1icaches.demandMshrMissRate::total     0.038231                       # mshr miss ratio for demand accesses (Ratio)
board.cache_hierarchy.l1icaches.overallMshrMissRate::processor.switch.core.inst     0.038231                       # mshr miss ratio for overall accesses (Ratio)
board.cache_hierarchy.l1icaches.overallMshrMissRate::total     0.038231                       # mshr miss ratio for overall accesses (Ratio)
board.cache_hierarchy.l1icaches.demandAvgMshrMissLatency::processor.switch.core.inst 11717.572470                       # average overall mshr miss latency ((Tick/Count))
board.cache_hierarchy.l1icaches.demandAvgMshrMissLatency::total 11717.572470                       # average overall mshr miss latency ((Tick/Count))
board.cache_hierarchy.l1icaches.overallAvgMshrMissLatency::processor.switch.core.inst 11717.572470                       # average overall mshr miss latency ((Tick/Count))
[...]
board.processor.switch.core.fetch.nisnDist::3     12781894      1.59%     77.73% # Number of instructions fetched each cycle (Total) (Count)
board.processor.switch.core.fetch.nisnDist::4     10704668      1.33%     79.06% # Number of instructions fetched each cycle (Total) (Count)
board.processor.switch.core.fetch.nisnDist::5     11130689      1.39%     80.45% # Number of instructions fetched each cycle (Total) (Count)
board.processor.switch.core.fetch.nisnDist::6     11656908      1.45%     81.90% # Number of instructions fetched each cycle (Total) (Count)
board.processor.switch.core.fetch.nisnDist::7     10332964      1.29%     83.19% # Number of instructions fetched each cycle (Total) (Count)
board.processor.switch.core.fetch.nisnDist::8    134983194     16.81%    100.00% # Number of instructions fetched each cycle (Total) (Count)
board.processor.switch.core.fetch.nisnDist::overflows            0      0.00%    100.00% # Number of instructions fetched each cycle (Total) (Count)
board.processor.switch.core.fetch.nisnDist::min_value            0                       # Number of instructions fetched each cycle (Total) (Count)
board.processor.switch.core.fetch.nisnDist::max_value            8                       # Number of instructions fetched each cycle (Total) (Count)
board.processor.switch.core.fetch.nisnDist::total    802818722                       # Number of instructions fetched each cycle (Total) (Count)
board.processor.switch.core.fetchStats0.numInsts    808734230                       # Number of instructions fetched (thread level) (Count)
board.processor.switch.core.fetchStats0.numOps            0                       # Number of ops (including micro ops) fetched (thread level) (Count)
board.processor.switch.core.fetchStats0.fetchRate     0.950575                       # Number of inst fetches per cycle ((Count/Cycle))
board.processor.switch.core.fetchStats0.numBranches     75316425                       # Number of branches fetched (Count)
board.processor.switch.core.fetchStats0.branchRate     0.088526                       # Number of branch fetches per cycle (Ratio)
board.processor.switch.core.fetchStats0.icacheStallCycles     45443543                       # ICache total stall cycles (Cycle)
board.processor.switch.core.fetchStats0.numFetchSuspends            0                       # Number of times Execute suspended instruction fetching (Count)
board.processor.switch.core.iew.idleCycles            0                       # Number of cycles IEW is idle (Cycle)
board.processor.switch.core.iew.squashCycles      1314573                       # Number of cycles IEW is squashing (Cycle)
board.processor.switch.core.iew.blockCycles    317288252                       # Number of cycles IEW is blocking (Cycle)
board.processor.switch.core.iew.unblockCycles      6982045                       # Number of cycles IEW is unblocking (Cycle)
board.processor.switch.core.iew.dispatchedInsts   1334557070                       # Number of instructions dispatched to IQ (Count)
board.processor.switch.core.iew.dispSquashedInsts        88162                       # Number of squashed instructions skipped by dispatch (Count)
board.processor.switch.core.iew.dispLoadInsts    153664339                       # Number of dispatched load instructions (Count)
board.processor.switch.core.iew.dispStoreInsts     47994969                       # Number of dispatched store instructions (Count)
board.processor.switch.core.iew.dispNonSpecInsts       116356                       # Number of dispatched non-speculative instructions (Count)
board.processor.switch.core.iew.iqFullEvents      3289448                       # Number of times the IQ has become full, causing a stall (Count)
board.processor.switch.core.iew.lsqFullEvents      1255520                       # Number of times the LSQ has become full, causing a stall (Count)
board.processor.switch.core.iew.memOrderViolationEvents        49578                       # Number of memory order violations (Count)
board.processor.switch.core.iew.predictedTakenIncorrect       512415                       # Number of branches that were predicted taken incorrectly (Count)
board.processor.switch.core.iew.predictedNotTakenIncorrect       562449                       # Number of branches that were predicted not taken incorrectly (Count)
board.processor.switch.core.iew.branchMispredicts      1074864                       # Number of branch mispredicts detected at execute (Count)
board.processor.switch.core.iew.instsToCommit   1307739542                       # Cumulative count of insts sent to commit (Count)
board.processor.switch.core.iew.writebackCount   1304730774                       # Cumulative count of insts written-back (Count)
board.processor.switch.core.iew.producerInst    948500963                       # Number of instructions producing a value (Count)
board.processor.switch.core.iew.consumerInst   1706626944                       # Number of instructions consuming a value (Count)
board.processor.switch.core.iew.wbRate       1.533563                       # Insts written-back per cycle ((Count/Cycle))
board.processor.switch.core.iew.wbFanout     0.555775                       # Average fanout of values written-back ((Count/Count))
board.processor.switch.core.lsq0.forwLoads      3942702                       # Number of loads that had data forwarded from stores (Count)
board.processor.switch.core.lsq0.squashedLoads     11698586                       # Number of loads squashed (Count)
board.processor.switch.core.lsq0.ignoredResponses         1109                       # Number of memory responses ignored because the instruction is squashed (Count)
board.processor.switch.core.lsq0.memOrderViolation        49578                       # Number of memory ordering violations (Count)
board.processor.switch.core.lsq0.squashedStores      9999096                       # Number of stores squashed (Count)
board.processor.switch.core.lsq0.rescheduledLoads      1887872                       # Number of loads that were rescheduled (Count)
board.processor.switch.core.lsq0.blockedByCache          142                       # Number of times an access to memory failed due to the cache being blocked (Count)
board.processor.switch.core.lsq0.loadToUse::samples    141699552                       # Distribution of cycle latency between the first time a load is issued and its completion (Unspecified)
board.processor.switch.core.lsq0.loadToUse::mean     6.545168                       # Distribution of cycle latency between the first time a load is issued and its completion (Unspecified)
board.processor.switch.core.lsq0.loadToUse::stdev    21.036762                       # Distribution of cycle latency between the first time a load is issued and its completion (Unspecified)
board.processor.switch.core.lsq0.loadToUse::0-9    131496316     92.80%     92.80% # Distribution of cycle latency between the first time a load is issued and its completion (Unspecified)
board.processor.switch.core.lsq0.loadToUse::10-19      5216050      3.68%     96.48% # Distribution of cycle latency between the first time a load is issued and its completion (Unspecified)
board.processor.switch.core.lsq0.loadToUse::20-29       624102      0.44%     96.92% # Distribution of cycle latency between the first time a load is issued and its completion (Unspecified)
board.processor.switch.core.lsq0.loadToUse::30-39        83023      0.06%     96.98% # Distribution of cycle latency between the first time a load is issued and its completion (Unspecified)
board.processor.switch.core.lsq0.loadToUse::40-49        38709      0.03%     97.01% # Distribution of cycle latency between the first time a load is issued and its completion (Unspecified)
board.processor.switch.core.lsq0.loadToUse::50-59        56016      0.04%     97.05% # Distribution of cycle latency between the first time a load is issued and its completion (Unspecified)
board.processor.switch.core.lsq0.loadToUse::60-69        21861      0.02%     97.06% # Distribution of cycle latency between the first time a load is issued and its completion (Unspecified)
board.processor.switch.core.lsq0.loadToUse::70-79        20831      0.01%     97.08% # Distribution of cycle latency between the first time a load is issued and its completion (Unspecified)
board.processor.switch.core.lsq0.loadToUse::80-89        15983      0.01%     97.09% # Distribution of cycle latency between the first time a load is issued and its completion (Unspecified)
board.processor.switch.core.lsq0.loadToUse::90-99        19594      0.01%     97.10% # Distribution of cycle latency between the first time a load is issued and its completion (Unspecified)
board.processor.switch.core.lsq0.loadToUse::100-109        40706      0.03%     97.13% # Distribution of cycle latency between the first time a load is issued and its completion (Unspecified)
board.processor.switch.core.lsq0.loadToUse::110-119        58905      0.04%     97.17% # Distribution of cycle latency between the first time a load is issued and its completion (Unspecified)
board.processor.switch.core.lsq0.loadToUse::120-129      3796669      2.68%     99.85% # Distribution of cycle latency between the first time a load is issued and its completion (Unspecified)
board.processor.switch.core.lsq0.loadToUse::130-139        99011      0.07%     99.92% # Distribution of cycle latency between the first time a load is issued and its completion (Unspecified)
board.processor.switch.core.lsq0.loadToUse::140-149        47329      0.03%     99.95% # Distribution of cycle latency between the first time a load is issued and its completion (Unspecified)
board.processor.switch.core.lsq0.loadToUse::150-159        24936      0.02%     99.97% # Distribution of cycle latency between the first time a load is issued and its completion (Unspecified)
board.processor.switch.core.lsq0.loadToUse::160-169        12150      0.01%     99.98% # Distribution of cycle latency between the first time a load is issued and its completion (Unspecified)
board.processor.switch.core.lsq0.loadToUse::170-179         6179      0.00%     99.99% # Distribution of cycle latency between the first time a load is issued and its completion (Unspecified)
board.processor.switch.core.lsq0.loadToUse::180-189         2205      0.00%     99.99% # Distribution of cycle latency between the first time a load is issued and its completion (Unspecified)
board.processor.switch.core.lsq0.loadToUse::190-199          414      0.00%     99.99% # Distribution of cycle latency between the first time a load is issued and its completion (Unspecified)
board.processor.switch.core.lsq0.loadToUse::200-209          203      0.00%     99.99% # Distribution of cycle latency between the first time a load is issued and its completion (Unspecified)
board.processor.switch.core.lsq0.loadToUse::210-219          361      0.00%     99.99% # Distribution of cycle latency between the first time a load is issued and its completion (Unspecified)
board.processor.switch.core.lsq0.loadToUse::220-229          228      0.00%     99.99% # Distribution of cycle latency between the first time a load is issued and its completion (Unspecified)
board.processor.switch.core.lsq0.loadToUse::230-239         2727      0.00%     99.99% # Distribution of cycle latency between the first time a load is issued and its completion (Unspecified)
board.processor.switch.core.lsq0.loadToUse::240-249         2266      0.00%     99.99% # Distribution of cycle latency between the first time a load is issued and its completion (Unspecified)
board.processor.switch.core.lsq0.loadToUse::250-259         2244      0.00%     99.99% # Distribution of cycle latency between the first time a load is issued and its completion (Unspecified)
board.processor.switch.core.lsq0.loadToUse::260-269         2829      0.00%     99.99% # Distribution of cycle latency between the first time a load is issued and its completion (Unspecified)
board.processor.switch.core.lsq0.loadToUse::270-279          900      0.00%    100.00% # Distribution of cycle latency between the first time a load is issued and its completion (Unspecified)
board.processor.switch.core.lsq0.loadToUse::280-289          157      0.00%    100.00% # Distribution of cycle latency between the first time a load is issued and its completion (Unspecified)
board.processor.switch.core.lsq0.loadToUse::290-299           49      0.00%    100.00% # Distribution of cycle latency between the first time a load is issued and its completion (Unspecified)
board.processor.switch.core.lsq0.loadToUse::overflows         6599      0.00%    100.00% # Distribution of cycle latency between the first time a load is issued and its completion (Unspecified)
board.processor.switch.core.lsq0.loadToUse::min_value            2                       # Distribution of cycle latency between the first time a load is issued and its completion (Unspecified)
board.processor.switch.core.lsq0.loadToUse::max_value          674                       # Distribution of cycle latency between the first time a load is issued and its completion (Unspecified)
board.processor.switch.core.lsq0.loadToUse::total    141699552                       # Distribution of cycle latency between the first time a load is issued and its completion (Unspecified)
board.processor.switch.core.mmu.dtb.rdAccesses    156096713                       # TLB accesses on read requests (Count)
board.processor.switch.core.mmu.dtb.wrAccesses     46487431                       # TLB accesses on write requests (Count)
board.processor.switch.core.mmu.dtb.rdMisses      1005717                       # TLB misses on read requests (Count)
board.processor.switch.core.mmu.dtb.wrMisses       129317                       # TLB misses on write requests (Count)
board.processor.switch.core.mmu.dtb.walker.power_state.pwrStateResidencyTicks::UNDEFINED 101909203742736                       # Cumulative time (in ticks) in various power states (Tick)
board.processor.switch.core.mmu.itb.rdAccesses            0                       # TLB accesses on read requests (Count)
board.processor.switch.core.mmu.itb.wrAccesses     66413993                       # TLB accesses on write requests (Count)
board.processor.switch.core.mmu.itb.rdMisses            0                       # TLB misses on read requests (Count)
board.processor.switch.core.mmu.itb.wrMisses         4525                       # TLB misses on write requests (Count)
board.processor.switch.core.mmu.itb.walker.power_state.pwrStateResidencyTicks::UNDEFINED 101909203742736                       # Cumulative time (in ticks) in various power states (Tick)
board.processor.switch.core.power_state.numTransitions            2                       # Number of power state transitions (Count)
board.processor.switch.core.power_state.ticksClkGated::samples            1                       # Distribution of time spent in the clock gated state (Tick)
board.processor.switch.core.power_state.ticksClkGated::mean      5365698                       # Distribution of time spent in the clock gated state (Tick)
board.processor.switch.core.power_state.ticksClkGated::1000-5e+10            1    100.00%    100.00% # Distribution of time spent in the clock gated state (Tick)
board.processor.switch.core.power_state.ticksClkGated::min_value      5365698                       # Distribution of time spent in the clock gated state (Tick)
board.processor.switch.core.power_state.ticksClkGated::max_value      5365698                       # Distribution of time spent in the clock gated state (Tick)
board.processor.switch.core.power_state.ticksClkGated::total            1                       # Distribution of time spent in the clock gated state (Tick)
board.processor.switch.core.power_state.pwrStateResidencyTicks::ON 215469223905                       # Cumulative time (in ticks) in various power states (Tick)
board.processor.switch.core.power_state.pwrStateResidencyTicks::CLK_GATED      5365698                       # Cumulative time (in ticks) in various power states (Tick)
board.processor.switch.core.power_state.pwrStateResidencyTicks::OFF 101693729153133                       # Cumulative time (in ticks) in various power states (Tick)
board.processor.switch.core.rename.squashCycles      1314573                       # Number of cycles rename is squashing (Cycle)
board.processor.switch.core.rename.idleCycles     95768088                       # Number of cycles rename is idle (Cycle)
board.processor.switch.core.rename.blockCycles    425978787                       # Number of cycles rename is blocking (Cycle)
board.processor.switch.core.rename.serializeStallCycles      5429428                       # count of cycles rename stalled for serializing inst (Cycle)
board.processor.switch.core.rename.runCycles    151830058                       # Number of cycles rename is running (Cycle)
board.processor.switch.core.rename.unblockCycles    122497780                       # Number of cycles rename is unblocking (Cycle)
board.processor.switch.core.rename.renamedInsts   1342693397                       # Number of instructions processed by rename (Count)
board.processor.switch.core.rename.ROBFullEvents      8216578                       # Number of times rename has blocked due to ROB full (Count)
board.processor.switch.core.rename.IQFullEvents     85213168                       # Number of times rename has blocked due to IQ full (Count)
board.processor.switch.core.rename.LQFullEvents      2193415                       # Number of times rename has blocked due to LQ full (Count)
board.processor.switch.core.rename.SQFullEvents     10333639                       # Number of times rename has blocked due to SQ full (Count)
board.processor.switch.core.rename.fullRegistersEvents            3                       # Number of times there has been no free registers (Count)
board.processor.switch.core.rename.renamedOperands   2187715564                       # Number of destination operands rename has renamed (Count)
board.processor.switch.core.rename.lookups   4145771175                       # Number of register rename lookups that rename has made (Count)
board.processor.switch.core.rename.intLookups   1173431897                       # Number of integer rename lookups (Count)
board.processor.switch.core.rename.fpLookups   1063148211                       # Number of floating rename lookups (Count)
board.processor.switch.core.rename.committedMaps   2060283910                       # Number of HB maps that are committed (Count)
board.processor.switch.core.rename.undoneMaps    127431654                       # Number of HB maps that are undone due to squashing (Count)
board.processor.switch.core.rename.serializing        92913                       # count of serializing insts renamed (Count)
board.processor.switch.core.rename.tempSerializing        93953                       # count of temporary serializing insts renamed (Count)
board.processor.switch.core.rename.skidInsts    312282807                       # count of insts added to the skid buffer (Count)
board.processor.switch.core.rob.reads      1995917245                       # The number of ROB reads (Count)
board.processor.switch.core.rob.writes     2660972686                       # The number of ROB writes (Count)
board.processor.switch.core.thread_0.numInsts    738577763                       # Number of Instructions committed (Count)
board.processor.switch.core.thread_0.numOps   1254761624                       # Number of Ops committed (Count)
board.processor.switch.core.thread_0.numMemRefs            0                       # Number of Memory References (Count)
board.workload.inst.arm                             0                       # number of arm instructions executed (Count)
board.workload.inst.quiesce                         0                       # number of quiesce instructions executed (Count)

---------- End Simulation Statistics   ----------
